xflr5 v6.61

 Calculated polar for: E63  (4.25%)

 1 1 Reynolds number fixed          Mach number fixed         

 xtrf =   1.000 (top)        1.000 (bottom)
 Mach =   0.000     Re =     1.000 e 6     Ncrit =   6.000

  alpha     CL        CD       CDp       Cm    Top Xtr Bot Xtr   Cpmin    Chinge    XCp    
 ------- -------- --------- --------- -------- ------- ------- -------- --------- ---------
  -9.000  -0.3165   0.11085   0.10915  -0.0365  0.9929  0.0031  -1.7802   0.0000   0.0000   0.0000   0.1309
  -8.500  -0.2974   0.10475   0.10305  -0.0399  0.9904  0.0031  -1.6709   0.0000   0.0000   0.0000   0.1120
  -8.000  -0.2735   0.09851   0.09682  -0.0448  0.9883  0.0032  -1.5847   0.0000   0.0000   0.0000   0.0822
  -7.500  -0.2474   0.09227   0.09059  -0.0502  0.9860  0.0033  -1.5097   0.0000   0.0000   0.0000   0.0424
  -7.000  -0.2226   0.08624   0.08456  -0.0553  0.9819  0.0034  -1.4929   0.0000   0.0000   0.0000  -0.0035
  -6.500  -0.1939   0.07990   0.07823  -0.0613  0.9765  0.0035  -1.5001   0.0000   0.0000   0.0000  -0.0721
  -6.000  -0.1544   0.07282   0.07116  -0.0703  0.9712  0.0038  -1.5187   0.0000   0.0000   0.0000  -0.2127
  -2.000   0.5192   0.00855   0.00428  -0.1845  0.9471  0.0059  -2.3520   0.0000   0.0000   0.0000   0.6070
  -1.000   0.6544   0.00636   0.00175  -0.1895  0.9320  0.0083  -1.2788   0.0000   0.0000   0.0000   0.5403
  -0.500   0.7330   0.00565   0.00111  -0.1946  0.9190  0.0747  -0.7153   0.0000   0.0000   0.0000   0.5157
   0.000   0.8300   0.00479   0.00096  -0.2047  0.8896  0.4542  -0.6548   0.0000   0.0000   0.0000   0.4964
   0.500   0.8934   0.00476   0.00111  -0.2065  0.8123  0.7208  -0.7304   0.0000   0.0000   0.0000   0.4804
   1.000   0.9303   0.00495   0.00134  -0.2019  0.7268  1.0000  -0.8017   0.0000   0.0000   0.0000   0.4659
   1.500   0.9743   0.00576   0.00165  -0.1994  0.6249  1.0000  -0.8982   0.0000   0.0000   0.0000   0.4529
   2.000   1.0186   0.00680   0.00208  -0.1970  0.4956  1.0000  -1.0486   0.0000   0.0000   0.0000   0.4413
   2.500   1.0618   0.00821   0.00267  -0.1948  0.3252  1.0000  -1.3823   0.0000   0.0000   0.0000   0.4308
   3.000   1.1062   0.00962   0.00334  -0.1929  0.1754  1.0000  -1.7696   0.0000   0.0000   0.0000   0.4212
   3.500   1.1526   0.01083   0.00405  -0.1913  0.0759  1.0000  -2.1796   0.0000   0.0000   0.0000   0.4123
   4.000   1.1992   0.01202   0.00491  -0.1896  0.0115  1.0000  -2.6427   0.0000   0.0000   0.0000   0.4039
   4.500   1.2492   0.01269   0.00563  -0.1885  0.0089  1.0000  -3.1564   0.0000   0.0000   0.0000   0.3960
   5.000   1.2983   0.01346   0.00650  -0.1872  0.0079  1.0000  -3.7059   0.0000   0.0000   0.0000   0.3887
   5.500   1.3460   0.01441   0.00757  -0.1856  0.0073  1.0000  -4.2810   0.0000   0.0000   0.0000   0.3818
   6.000   1.3914   0.01571   0.00902  -0.1835  0.0067  1.0000  -5.2289   0.0000   0.0000   0.0000   0.3752
   6.500   1.4315   0.01778   0.01132  -0.1804  0.0061  1.0000  -6.2047   0.0000   0.0000   0.0000   0.3687
   7.000   1.4742   0.01936   0.01307  -0.1780  0.0058  1.0000  -7.3262   0.0000   0.0000   0.0000   0.3627
   7.500   1.5173   0.02077   0.01468  -0.1757  0.0050  1.0000  -8.6607   0.0000   0.0000   0.0000   0.3571
   8.000   1.5600   0.02203   0.01607  -0.1736  0.0042  1.0000  -10.2107   0.0000   0.0000   0.0000   0.3519
   9.000   1.6401   0.02508   0.01956  -0.1685  0.0028  1.0000  -13.4620   0.0000   0.0000   0.0000   0.3418
   9.500   1.6841   0.02554   0.02008  -0.1670  0.0023  1.0000  -15.4738   0.0000   0.0000   0.0000   0.3374
  10.000   1.7205   0.02713   0.02192  -0.1640  0.0016  1.0000  -17.2558   0.0000   0.0000   0.0000   0.3327
  10.500   1.7588   0.02813   0.02301  -0.1615  0.0011  1.0000  -19.3037   0.0000   0.0000   0.0000   0.3283
  11.000   1.7806   0.03076   0.02598  -0.1560  0.0008  1.0000  -20.8781   0.0000   0.0000   0.0000   0.3233
  11.500   1.7932   0.03370   0.02924  -0.1491  0.0007  1.0000  -22.2982   0.0000   0.0000   0.0000   0.3180
  12.000   1.7931   0.03800   0.03399  -0.1408  0.0006  1.0000  -23.3349   0.0000   0.0000   0.0000   0.3126
  12.500   1.7847   0.04319   0.03966  -0.1325  0.0005  1.0000  -24.1979   0.0000   0.0000   0.0000   0.3075
  13.000   1.7660   0.04978   0.04673  -0.1248  0.0005  1.0000  -24.7842   0.0000   0.0000   0.0000   0.3030
  13.500   1.7369   0.05824   0.05567  -0.1190  0.0005  1.0000  -25.0662   0.0000   0.0000   0.0000   0.2999
  14.000   1.6986   0.06934   0.06724  -0.1168  0.0004  1.0000  -25.0188   0.0000   0.0000   0.0000   0.2991
  14.500   1.6531   0.08420   0.08251  -0.1203  0.0005  1.0000  -24.6080   0.0000   0.0000   0.0000   0.3020
  15.000   1.6037   0.10430   0.10300  -0.1314  0.0005  1.0000  -23.7516   0.0000   0.0000   0.0000   0.3102


xflr5 v6.61

 Calculated polar for: E63  (4.25%)

 1 1 Reynolds number fixed          Mach number fixed         

 xtrf =   1.000 (top)        1.000 (bottom)
 Mach =   0.000     Re =     0.060 e 6     Ncrit =   6.000

  alpha     CL        CD       CDp       Cm    Top Xtr Bot Xtr   Cpmin    Chinge    XCp    
 ------- -------- --------- --------- -------- ------- ------- -------- --------- ---------
 -15.000  -0.5008   0.19037   0.18308  -0.0094  1.0000  0.0296  -1.3887   0.0000   0.0000   0.0000   0.2277
 -14.500  -0.4866   0.18356   0.17632  -0.0107  1.0000  0.0305  -1.3367   0.0000   0.0000   0.0000   0.2246
 -14.000  -0.4731   0.17773   0.17052  -0.0121  1.0000  0.0322  -1.2928   0.0000   0.0000   0.0000   0.2212
 -13.500  -0.4604   0.17244   0.16527  -0.0137  1.0000  0.0340  -1.2989   0.0000   0.0000   0.0000   0.2171
 -13.000  -0.4488   0.16763   0.16049  -0.0156  1.0000  0.0355  -1.3292   0.0000   0.0000   0.0000   0.2123
 -12.500  -0.4393   0.16351   0.15644  -0.0177  1.0000  0.0360  -1.3845   0.0000   0.0000   0.0000   0.2070
 -12.000  -0.4258   0.15654   0.14952  -0.0181  1.0000  0.0373  -1.3384   0.0000   0.0000   0.0000   0.2047
 -11.500  -0.4145   0.15099   0.14403  -0.0190  1.0000  0.0393  -1.3231   0.0000   0.0000   0.0000   0.2015
 -11.000  -0.4051   0.14614   0.13925  -0.0202  1.0000  0.0412  -1.3420   0.0000   0.0000   0.0000   0.1975
 -10.500  -0.3990   0.14232   0.13553  -0.0219  1.0000  0.0420  -1.3978   0.0000   0.0000   0.0000   0.1927
 -10.000  -0.3865   0.13525   0.12852  -0.0215  1.0000  0.0440  -1.3296   0.0000   0.0000   0.0000   0.1921
  -9.500  -0.3788   0.13034   0.12368  -0.0220  1.0000  0.0465  -1.3287   0.0000   0.0000   0.0000   0.1897
  -9.000  -0.3770   0.12707   0.12054  -0.0231  1.0000  0.0477  -1.3877   0.0000   0.0000   0.0000   0.1866
  -8.500  -0.3659   0.12023   0.11378  -0.0219  1.0000  0.0505  -1.3093   0.0000   0.0000   0.0000   0.1879
  -8.000  -0.3637   0.11620   0.10989  -0.0217  1.0000  0.0535  -1.3438   0.0000   0.0000   0.0000   0.1883
  -7.500  -0.3726   0.11412   0.10799  -0.0211  1.0000  0.0544  -1.4393   0.0000   0.0000   0.0000   0.1916
  -7.000  -0.3625   0.10721   0.10117  -0.0186  1.0000  0.0585  -1.3713   0.0000   0.0000   0.0000   0.1970
  -6.500  -0.3681   0.10416   0.09831  -0.0182  1.0000  0.0609  -1.4397   0.0000   0.0000   0.0000   0.1992
  -6.000  -0.3612   0.09847   0.09275  -0.0171  1.0000  0.0638  -1.4219   0.0000   0.0000   0.0000   0.2011
  -5.500  -0.3502   0.09402   0.08840  -0.0219  1.0000  0.0676  -1.4888   0.0000   0.0000   0.0000   0.1861
  -5.000  -0.3365   0.08790   0.08237  -0.0219  1.0000  0.0724  -1.4489   0.0000   0.0000   0.0000   0.1833
  -4.500  -0.3133   0.08185   0.07640  -0.0266  1.0000  0.0778  -1.4459   0.0000   0.0000   0.0000   0.1637
  -4.000  -0.2786   0.07535   0.06993  -0.0338  1.0000  0.0858  -1.4313   0.0000   0.0000   0.0000   0.1270
  -3.500  -0.2261   0.06808   0.06261  -0.0452  1.0000  0.0970  -1.4080   0.0000   0.0000   0.0000   0.0477
  -1.500   0.2224   0.03192   0.02344  -0.1214  1.0000  0.0478  -1.7338   0.0000   0.0000   0.0000   0.7974
  -1.000   0.3161   0.02760   0.01796  -0.1296  1.0000  0.0473  -1.6773   0.0000   0.0000   0.0000   0.6608
  -0.500   0.3917   0.02521   0.01493  -0.1336  1.0000  0.0557  -1.4745   0.0000   0.0000   0.0000   0.5913
   0.000   0.4617   0.02387   0.01327  -0.1364  1.0000  0.0928  -1.3139   0.0000   0.0000   0.0000   0.5453
   0.500   0.5226   0.02172   0.01285  -0.1379  1.0000  1.0000  -1.0756   0.0000   0.0000   0.0000   0.5132
   1.000   0.5691   0.02289   0.01349  -0.1375  1.0000  1.0000  -0.6353   0.0000   0.0000   0.0000   0.4905
   1.500   0.6269   0.02427   0.01455  -0.1396  0.9931  1.0000  -0.5831   0.0000   0.0000   0.0000   0.4711
   2.000   0.7073   0.02532   0.01545  -0.1458  0.9710  1.0000  -0.6679   0.0000   0.0000   0.0000   0.4541
   2.500   0.7861   0.02584   0.01602  -0.1511  0.9464  1.0000  -0.7742   0.0000   0.0000   0.0000   0.4396
   3.000   0.8640   0.02590   0.01630  -0.1555  0.9188  1.0000  -0.9153   0.0000   0.0000   0.0000   0.4269
   3.500   0.9434   0.02538   0.01618  -0.1591  0.8880  1.0000  -1.1691   0.0000   0.0000   0.0000   0.4151
   4.000   1.0189   0.02428   0.01564  -0.1608  0.8501  1.0000  -1.6534   0.0000   0.0000   0.0000   0.4038
   4.500   1.0941   0.02267   0.01471  -0.1611  0.7990  1.0000  -2.1785   0.0000   0.0000   0.0000   0.3927
   5.000   1.1780   0.02107   0.01369  -0.1619  0.6985  1.0000  -2.8081   0.0000   0.0000   0.0000   0.3823
   5.500   1.2364   0.02209   0.01405  -0.1588  0.4755  1.0000  -3.3729   0.0000   0.0000   0.0000   0.3726
   6.000   1.2534   0.02692   0.01669  -0.1523  0.1639  1.0000  -3.6796   0.0000   0.0000   0.0000   0.3651
   6.500   1.2824   0.03249   0.02142  -0.1477  0.0614  1.0000  -3.9360   0.0000   0.0000   0.0000   0.3582
   7.000   1.3180   0.03694   0.02616  -0.1437  0.0475  1.0000  -4.4779   0.0000   0.0000   0.0000   0.3514
   7.500   1.3671   0.04241   0.03192  -0.1419  0.0402  1.0000  -5.1713   0.0000   0.0000   0.0000   0.3455
   8.000   1.4186   0.05012   0.04071  -0.1397  0.0376  1.0000  -5.6550   0.0000   0.0000   0.0000   0.3396
   8.500   1.4477   0.05766   0.04899  -0.1359  0.0338  1.0000  -6.1189   0.0000   0.0000   0.0000   0.3344
   9.000   1.4559   0.06696   0.05948  -0.1294  0.0334  1.0000  -6.2172   0.0000   0.0000   0.0000   0.3288
   9.500   1.4467   0.07638   0.06984  -0.1223  0.0336  1.0000  -6.2092   0.0000   0.0000   0.0000   0.3240
  10.000   1.4051   0.08475   0.07920  -0.1131  0.0344  1.0000  -5.9437   0.0000   0.0000   0.0000   0.3195
  10.500   1.3548   0.09421   0.08921  -0.1080  0.0352  1.0000  -5.6605   0.0000   0.0000   0.0000   0.3181
  11.000   1.3065   0.10631   0.10175  -0.1103  0.0360  1.0000  -5.3531   0.0000   0.0000   0.0000   0.3222
  11.500   1.2653   0.12227   0.11795  -0.1210  0.0370  1.0000  -4.9575   0.0000   0.0000   0.0000   0.3328
  12.000   1.2426   0.14080   0.13650  -0.1351  0.0385  1.0000  -4.5102   0.0000   0.0000   0.0000   0.3455
  12.500   1.2395   0.15479   0.15045  -0.1436  0.0397  1.0000  -4.3065   0.0000   0.0000   0.0000   0.3521


xflr5 v6.61

 Calculated polar for: E63  (4.25%)

 1 1 Reynolds number fixed          Mach number fixed         

 xtrf =   1.000 (top)        1.000 (bottom)
 Mach =   0.000     Re =     0.130 e 6     Ncrit =   6.000

  alpha     CL        CD       CDp       Cm    Top Xtr Bot Xtr   Cpmin    Chinge    XCp    
 ------- -------- --------- --------- -------- ------- ------- -------- --------- ---------
 -15.000  -0.5024   0.18975   0.18477  -0.0085  1.0000  0.0126  -1.5457   0.0000   0.0000   0.0000   0.2295
 -14.500  -0.4875   0.18173   0.17680  -0.0093  1.0000  0.0128  -1.4588   0.0000   0.0000   0.0000   0.2275
 -14.000  -0.4746   0.17547   0.17055  -0.0104  1.0000  0.0133  -1.3728   0.0000   0.0000   0.0000   0.2248
 -13.500  -0.4622   0.16992   0.16503  -0.0118  1.0000  0.0139  -1.3372   0.0000   0.0000   0.0000   0.2213
  -9.000  -0.3736   0.12159   0.11711  -0.0193  1.0000  0.0189  -1.3973   0.0000   0.0000   0.0000   0.1960
  -8.500  -0.3678   0.11674   0.11232  -0.0191  1.0000  0.0200  -1.3860   0.0000   0.0000   0.0000   0.1959
  -8.000  -0.3643   0.11226   0.10793  -0.0188  1.0000  0.0210  -1.4090   0.0000   0.0000   0.0000   0.1965
  -6.500  -0.3729   0.10014   0.09614  -0.0125  1.0000  0.0223  -1.4722   0.0000   0.0000   0.0000   0.2149
  -6.000  -0.3723   0.09582   0.09192  -0.0116  1.0000  0.0234  -1.4883   0.0000   0.0000   0.0000   0.2175
  -2.000   0.2268   0.03029   0.02433  -0.1299  0.9806  0.0360  -1.7125   0.0000   0.0000   0.0000   0.8253
  -1.500   0.3335   0.02379   0.01662  -0.1411  0.9819  0.0249  -1.9025   0.0000   0.0000   0.0000   0.6745
  -1.000   0.4224   0.02056   0.01257  -0.1477  0.9805  0.0243  -1.7571   0.0000   0.0000   0.0000   0.6005
  -0.500   0.5030   0.01889   0.01069  -0.1530  0.9757  0.0318  -1.3893   0.0000   0.0000   0.0000   0.5544
   0.500   0.6495   0.01611   0.00964  -0.1606  0.9587  1.0000  -0.5610   0.0000   0.0000   0.0000   0.4966
   1.000   0.7209   0.01603   0.00932  -0.1638  0.9448  1.0000  -0.6294   0.0000   0.0000   0.0000   0.4760
   1.500   0.7931   0.01575   0.00896  -0.1669  0.9298  1.0000  -0.7139   0.0000   0.0000   0.0000   0.4588
   2.000   0.8607   0.01535   0.00860  -0.1687  0.9107  1.0000  -0.8183   0.0000   0.0000   0.0000   0.4440
   3.000   0.9976   0.01394   0.00752  -0.1717  0.8596  1.0000  -1.2582   0.0000   0.0000   0.0000   0.4190
   3.500   1.0776   0.01315   0.00696  -0.1752  0.8106  1.0000  -1.7735   0.0000   0.0000   0.0000   0.4090
   4.000   1.1690   0.01286   0.00659  -0.1808  0.6924  1.0000  -2.3770   0.0000   0.0000   0.0000   0.4005
   4.500   1.2092   0.01478   0.00739  -0.1765  0.4731  1.0000  -2.8403   0.0000   0.0000   0.0000   0.3912
   5.000   1.2339   0.01774   0.00904  -0.1708  0.2427  1.0000  -3.2385   0.0000   0.0000   0.0000   0.3831
   5.500   1.2634   0.02122   0.01134  -0.1667  0.0595  1.0000  -3.5923   0.0000   0.0000   0.0000   0.3760
   6.000   1.2989   0.02422   0.01429  -0.1628  0.0292  1.0000  -3.9462   0.0000   0.0000   0.0000   0.3688
   6.500   1.3332   0.02715   0.01760  -0.1586  0.0251  1.0000  -4.6102   0.0000   0.0000   0.0000   0.3618
   7.000   1.3673   0.03087   0.02146  -0.1547  0.0223  1.0000  -5.3537   0.0000   0.0000   0.0000   0.3554
   7.500   1.4118   0.03516   0.02627  -0.1521  0.0200  1.0000  -6.1048   0.0000   0.0000   0.0000   0.3493
   8.000   1.4563   0.04100   0.03275  -0.1496  0.0186  1.0000  -6.7725   0.0000   0.0000   0.0000   0.3437
   8.500   1.4835   0.04823   0.04099  -0.1448  0.0169  1.0000  -7.1984   0.0000   0.0000   0.0000   0.3379
   9.000   1.4889   0.05715   0.05114  -0.1369  0.0165  1.0000  -7.2924   0.0000   0.0000   0.0000   0.3317
   9.500   1.4719   0.06589   0.06089  -0.1276  0.0156  1.0000  -7.2427   0.0000   0.0000   0.0000   0.3259
  10.000   1.4361   0.07382   0.06949  -0.1179  0.0155  1.0000  -7.1159   0.0000   0.0000   0.0000   0.3207
  10.500   1.3940   0.08306   0.07927  -0.1118  0.0157  1.0000  -6.9239   0.0000   0.0000   0.0000   0.3182
  11.000   1.3512   0.09427   0.09093  -0.1116  0.0160  1.0000  -6.6922   0.0000   0.0000   0.0000   0.3199
  11.500   1.3125   0.10811   0.10511  -0.1184  0.0164  1.0000  -6.4187   0.0000   0.0000   0.0000   0.3268
  12.000   1.2849   0.12430   0.12148  -0.1302  0.0170  1.0000  -6.1303   0.0000   0.0000   0.0000   0.3373
  12.500   1.2700   0.14073   0.13796  -0.1422  0.0175  1.0000  -5.8423   0.0000   0.0000   0.0000   0.3474


xflr5 v6.61

 Calculated polar for: E63  (4.25%)

 1 1 Reynolds number fixed          Mach number fixed         

 xtrf =   1.000 (top)        1.000 (bottom)
 Mach =   0.000     Re =     0.200 e 6     Ncrit =   6.000

  alpha     CL        CD       CDp       Cm    Top Xtr Bot Xtr   Cpmin    Chinge    XCp    
 ------- -------- --------- --------- -------- ------- ------- -------- --------- ---------
 -15.000  -0.5026   0.18604   0.18204  -0.0061  1.0000  0.0079  -1.5179   0.0000   0.0000   0.0000   0.2343
 -14.500  -0.4899   0.18021   0.17623  -0.0075  1.0000  0.0082  -1.4519   0.0000   0.0000   0.0000   0.2311
 -14.000  -0.4774   0.17469   0.17072  -0.0091  1.0000  0.0085  -1.3979   0.0000   0.0000   0.0000   0.2277
 -13.500  -0.4651   0.16923   0.16529  -0.0105  1.0000  0.0090  -1.3510   0.0000   0.0000   0.0000   0.2242
 -13.000  -0.4530   0.16375   0.15983  -0.0119  1.0000  0.0094  -1.3460   0.0000   0.0000   0.0000   0.2206
 -12.500  -0.4415   0.15822   0.15432  -0.0132  1.0000  0.0098  -1.3576   0.0000   0.0000   0.0000   0.2172
 -12.000  -0.4304   0.15273   0.14886  -0.0143  1.0000  0.0102  -1.3722   0.0000   0.0000   0.0000   0.2139
 -11.500  -0.4198   0.14722   0.14339  -0.0153  1.0000  0.0107  -1.3881   0.0000   0.0000   0.0000   0.2108
 -11.000  -0.4097   0.14176   0.13797  -0.0162  1.0000  0.0111  -1.4051   0.0000   0.0000   0.0000   0.2079
 -10.500  -0.4003   0.13638   0.13262  -0.0169  1.0000  0.0116  -1.4256   0.0000   0.0000   0.0000   0.2053
 -10.000  -0.3913   0.13122   0.12751  -0.0175  1.0000  0.0120  -1.4569   0.0000   0.0000   0.0000   0.2028
  -9.500  -0.3836   0.12638   0.12270  -0.0181  1.0000  0.0123  -1.5017   0.0000   0.0000   0.0000   0.2004
  -9.000  -0.3779   0.12185   0.11824  -0.0186  1.0000  0.0124  -1.5507   0.0000   0.0000   0.0000   0.1986
  -8.500  -0.3746   0.11760   0.11406  -0.0187  1.0000  0.0125  -1.5988   0.0000   0.0000   0.0000   0.1981
  -8.000  -0.3744   0.11366   0.11019  -0.0182  1.0000  0.0125  -1.6462   0.0000   0.0000   0.0000   0.1997
  -7.500  -0.3789   0.11014   0.10677  -0.0166  1.0000  0.0126  -1.6943   0.0000   0.0000   0.0000   0.2046
  -7.000  -0.3888   0.10705   0.10379  -0.0138  1.0000  0.0126  -1.7472   0.0000   0.0000   0.0000   0.2130
  -6.500  -0.3812   0.09950   0.09629  -0.0101  1.0000  0.0132  -1.5627   0.0000   0.0000   0.0000   0.2220
  -6.000  -0.3672   0.09409   0.09093  -0.0125  0.9978  0.0142  -1.5121   0.0000   0.0000   0.0000   0.2145
  -5.500  -0.3214   0.08630   0.08312  -0.0238  0.9906  0.0159  -1.5066   0.0000   0.0000   0.0000   0.1742
  -5.000  -0.2614   0.07783   0.07462  -0.0398  0.9825  0.0174  -1.6280   0.0000   0.0000   0.0000   0.0952
  -4.500  -0.2002   0.06907   0.06583  -0.0542  0.9756  0.0181  -1.6454   0.0000   0.0000   0.0000  -0.0241
  -4.000  -0.1250   0.06037   0.05702  -0.0708  0.9694  0.0209  -1.6028   0.0000   0.0000   0.0000  -0.3220
  -3.500  -0.0354   0.05113   0.04764  -0.0895  0.9640  0.0235  -1.5454   0.0000   0.0000   0.0000  -2.3000
  -3.000   0.1084   0.03936   0.03529  -0.1192  0.9634  0.0299  -1.6897   0.0000   0.0000   0.0000   1.3556
  -2.500   0.1933   0.03261   0.02829  -0.1309  0.9606  0.0389  -1.3652   0.0000   0.0000   0.0000   0.9308
  -1.500   0.4194   0.01835   0.01160  -0.1563  0.9657  0.0167  -1.9743   0.0000   0.0000   0.0000   0.6240
  -1.000   0.5012   0.01610   0.00892  -0.1616  0.9635  0.0186  -1.6614   0.0000   0.0000   0.0000   0.5731
  -0.500   0.5766   0.01497   0.00767  -0.1658  0.9575  0.0280  -1.2531   0.0000   0.0000   0.0000   0.5378
   0.500   0.7133   0.01224   0.00687  -0.1712  0.9395  1.0000  -0.6018   0.0000   0.0000   0.0000   0.4893
   1.000   0.7811   0.01190   0.00640  -0.1734  0.9266  1.0000  -0.6754   0.0000   0.0000   0.0000   0.4708
   1.500   0.8470   0.01145   0.00591  -0.1749  0.9112  1.0000  -0.7642   0.0000   0.0000   0.0000   0.4549
   2.000   0.9116   0.01095   0.00546  -0.1760  0.8907  1.0000  -0.8773   0.0000   0.0000   0.0000   0.4410
   2.500   0.9849   0.01035   0.00495  -0.1789  0.8609  1.0000  -1.0636   0.0000   0.0000   0.0000   0.4290
   3.000   1.0786   0.00980   0.00441  -0.1860  0.8003  1.0000  -1.5949   0.0000   0.0000   0.0000   0.4194
   3.500   1.1456   0.01039   0.00456  -0.1875  0.6742  1.0000  -2.0870   0.0000   0.0000   0.0000   0.4100
   4.000   1.1742   0.01254   0.00550  -0.1814  0.4537  1.0000  -2.4433   0.0000   0.0000   0.0000   0.4002
   4.500   1.2058   0.01483   0.00680  -0.1770  0.2636  1.0000  -2.8749   0.0000   0.0000   0.0000   0.3920
   5.000   1.2408   0.01743   0.00844  -0.1738  0.0930  1.0000  -3.3095   0.0000   0.0000   0.0000   0.3847
   5.500   1.2789   0.01995   0.01059  -0.1706  0.0242  1.0000  -3.6689   0.0000   0.0000   0.0000   0.3774
   6.000   1.3201   0.02195   0.01286  -0.1676  0.0196  1.0000  -4.2034   0.0000   0.0000   0.0000   0.3704
   6.500   1.3567   0.02447   0.01563  -0.1640  0.0170  1.0000  -5.0181   0.0000   0.0000   0.0000   0.3637
   7.000   1.3931   0.02745   0.01891  -0.1603  0.0155  1.0000  -5.8258   0.0000   0.0000   0.0000   0.3572
   7.500   1.4328   0.03136   0.02315  -0.1571  0.0145  1.0000  -6.6363   0.0000   0.0000   0.0000   0.3512
   8.000   1.4730   0.03661   0.02896  -0.1543  0.0129  1.0000  -7.4067   0.0000   0.0000   0.0000   0.3456
   8.500   1.5030   0.04311   0.03655  -0.1492  0.0115  1.0000  -7.9203   0.0000   0.0000   0.0000   0.3395
   9.000   1.5145   0.05059   0.04498  -0.1423  0.0105  1.0000  -8.2771   0.0000   0.0000   0.0000   0.3336
  10.000   1.4728   0.06565   0.06140  -0.1236  0.0092  1.0000  -8.5350   0.0000   0.0000   0.0000   0.3224
  10.500   1.4328   0.07430   0.07069  -0.1156  0.0091  1.0000  -8.3404   0.0000   0.0000   0.0000   0.3185
  11.000   1.3916   0.08472   0.08160  -0.1130  0.0091  1.0000  -8.1468   0.0000   0.0000   0.0000   0.3182
  11.500   1.3531   0.09722   0.09446  -0.1165  0.0092  1.0000  -7.9525   0.0000   0.0000   0.0000   0.3223


xflr5 v6.61

 Calculated polar for: E63  (4.25%)

 1 1 Reynolds number fixed          Mach number fixed         

 xtrf =   1.000 (top)        1.000 (bottom)
 Mach =   0.000     Re =     3.000 e 6     Ncrit =   6.000

  alpha     CL        CD       CDp       Cm    Top Xtr Bot Xtr   Cpmin    Chinge    XCp    
 ------- -------- --------- --------- -------- ------- ------- -------- --------- ---------
 -15.000  -0.4520   0.17603   0.17494  -0.0226  0.9950  0.0011  -1.6600   0.0000   0.0000   0.0000   0.1953
 -14.500  -0.4346   0.16985   0.16876  -0.0258  0.9947  0.0011  -1.6494   0.0000   0.0000   0.0000   0.1860
 -14.000  -0.4169   0.16357   0.16248  -0.0291  0.9944  0.0011  -1.6325   0.0000   0.0000   0.0000   0.1755
 -13.500  -0.3997   0.15734   0.15625  -0.0322  0.9941  0.0011  -1.6140   0.0000   0.0000   0.0000   0.1647
 -13.000  -0.3824   0.15100   0.14992  -0.0353  0.9938  0.0011  -1.6532   0.0000   0.0000   0.0000   0.1527
 -12.500  -0.3654   0.14473   0.14365  -0.0386  0.9935  0.0012  -1.6014   0.0000   0.0000   0.0000   0.1395
 -12.000  -0.3477   0.13869   0.13761  -0.0418  0.9933  0.0012  -1.5406   0.0000   0.0000   0.0000   0.1248
 -11.500  -0.3293   0.13255   0.13147  -0.0452  0.9931  0.0013  -1.4989   0.0000   0.0000   0.0000   0.1077
 -11.000  -0.3101   0.12633   0.12525  -0.0487  0.9928  0.0014  -1.4771   0.0000   0.0000   0.0000   0.0875
 -10.500  -0.2987   0.12080   0.11972  -0.0497  0.9911  0.0016  -1.4875   0.0000   0.0000   0.0000   0.0785
 -10.000  -0.2813   0.11455   0.11349  -0.0523  0.9900  0.0018  -1.6262   0.0000   0.0000   0.0000   0.0584
  -9.500  -0.2616   0.10827   0.10721  -0.0559  0.9891  0.0019  -1.6927   0.0000   0.0000   0.0000   0.0304
  -9.000  -0.2398   0.10203   0.10097  -0.0600  0.9884  0.0019  -1.6897   0.0000   0.0000   0.0000  -0.0065
  -3.000   0.4686   0.00615   0.00303  -0.1973  0.9474  0.0025  -4.2279   0.0000   0.0000   0.0000   0.6739
  -2.500   0.5635   0.00504   0.00165  -0.2065  0.9348  0.0030  -3.1410   0.0000   0.0000   0.0000   0.6188
  -2.000   0.6314   0.00462   0.00091  -0.2094  0.8847  0.0036  -2.2161   0.0000   0.0000   0.0000   0.5833
  -1.500   0.6768   0.00484   0.00073  -0.2069  0.8070  0.0045  -1.5705   0.0000   0.0000   0.0000   0.5569
  -1.000   0.7251   0.00508   0.00061  -0.2052  0.7314  0.0061  -1.0466   0.0000   0.0000   0.0000   0.5337
  -0.500   0.7737   0.00552   0.00066  -0.2037  0.6411  0.0120  -0.5994   0.0000   0.0000   0.0000   0.5134
   0.000   0.8263   0.00571   0.00081  -0.2033  0.5619  0.1510  -0.6523   0.0000   0.0000   0.0000   0.4958
   0.500   0.8790   0.00597   0.00105  -0.2031  0.4810  0.3133  -0.7194   0.0000   0.0000   0.0000   0.4802
   1.000   0.9308   0.00637   0.00133  -0.2026  0.3968  0.4391  -0.8017   0.0000   0.0000   0.0000   0.4664
   1.500   0.9808   0.00703   0.00173  -0.2018  0.2781  0.5759  -0.9041   0.0000   0.0000   0.0000   0.4540
   2.000   1.0312   0.00775   0.00224  -0.2011  0.1601  0.7427  -1.0759   0.0000   0.0000   0.0000   0.4428
   2.500   1.0768   0.00814   0.00271  -0.1991  0.0800  1.0000  -1.4498   0.0000   0.0000   0.0000   0.4322
   3.000   1.1261   0.00897   0.00323  -0.1978  0.0163  1.0000  -1.8590   0.0000   0.0000   0.0000   0.4225
   3.500   1.1777   0.00944   0.00364  -0.1970  0.0066  1.0000  -2.2932   0.0000   0.0000   0.0000   0.4136
   4.000   1.2294   0.00986   0.00407  -0.1963  0.0059  1.0000  -2.8451   0.0000   0.0000   0.0000   0.4054
   4.500   1.2806   0.01034   0.00457  -0.1954  0.0055  1.0000  -3.4300   0.0000   0.0000   0.0000   0.3977
   5.000   1.3310   0.01089   0.00515  -0.1944  0.0052  1.0000  -4.0443   0.0000   0.0000   0.0000   0.3906
   5.500   1.3808   0.01151   0.00583  -0.1933  0.0049  1.0000  -4.6904   0.0000   0.0000   0.0000   0.3839
   6.000   1.4298   0.01221   0.00658  -0.1921  0.0045  1.0000  -5.8209   0.0000   0.0000   0.0000   0.3776
   6.500   1.4752   0.01348   0.00800  -0.1900  0.0038  1.0000  -6.9785   0.0000   0.0000   0.0000   0.3714
   7.000   1.5255   0.01382   0.00833  -0.1893  0.0036  1.0000  -8.4868   0.0000   0.0000   0.0000   0.3659
   7.500   1.5741   0.01437   0.00890  -0.1882  0.0031  1.0000  -10.1534   0.0000   0.0000   0.0000   0.3607
   8.000   1.6226   0.01487   0.00939  -0.1871  0.0026  1.0000  -11.9682   0.0000   0.0000   0.0000   0.3557
   8.500   1.6690   0.01563   0.01018  -0.1856  0.0021  1.0000  -13.8489   0.0000   0.0000   0.0000   0.3508
   9.000   1.7148   0.01640   0.01097  -0.1841  0.0013  1.0000  -15.8428   0.0000   0.0000   0.0000   0.3461
   9.500   1.7572   0.01763   0.01230  -0.1819  0.0005  1.0000  -17.8355   0.0000   0.0000   0.0000   0.3414
  10.000   1.7973   0.01911   0.01393  -0.1793  0.0003  1.0000  -19.8611   0.0000   0.0000   0.0000   0.3368
  10.500   1.8355   0.02071   0.01570  -0.1764  0.0002  1.0000  -21.9212   0.0000   0.0000   0.0000   0.3323
  11.000   1.8720   0.02237   0.01754  -0.1732  0.0002  1.0000  -24.0745   0.0000   0.0000   0.0000   0.3279
  11.500   1.9049   0.02427   0.01964  -0.1695  0.0001  1.0000  -26.2257   0.0000   0.0000   0.0000   0.3234
  12.000   1.9328   0.02647   0.02207  -0.1650  0.0001  1.0000  -28.3234   0.0000   0.0000   0.0000   0.3189
  12.500   1.9490   0.02899   0.02484  -0.1584  0.0001  1.0000  -30.1783   0.0000   0.0000   0.0000   0.3140
  13.000   1.9555   0.03193   0.02804  -0.1505  0.0001  1.0000  -31.7981   0.0000   0.0000   0.0000   0.3087
  13.500   1.9560   0.03561   0.03202  -0.1423  0.0000  1.0000  -33.2454   0.0000   0.0000   0.0000   0.3036
  14.000   1.9479   0.04033   0.03707  -0.1341  0.0000  1.0000  -34.4069   0.0000   0.0000   0.0000   0.2988
  14.500   1.9276   0.04668   0.04379  -0.1261  0.0000  1.0000  -35.1287   0.0000   0.0000   0.0000   0.2944
  15.000   1.9011   0.05441   0.05187  -0.1201  0.0000  1.0000  -35.6820   0.0000   0.0000   0.0000   0.2911


xflr5 v6.61

 Calculated polar for: E63  (4.25%)

 1 1 Reynolds number fixed          Mach number fixed         

 xtrf =   1.000 (top)        1.000 (bottom)
 Mach =   0.000     Re =     0.500 e 6     Ncrit =   6.000

  alpha     CL        CD       CDp       Cm    Top Xtr Bot Xtr   Cpmin    Chinge    XCp    
 ------- -------- --------- --------- -------- ------- ------- -------- --------- ---------
 -15.000  -0.5107   0.18540   0.18287  -0.0028  1.0000  0.0039  -1.4377   0.0000   0.0000   0.0000   0.2409
 -14.500  -0.4976   0.17984   0.17733  -0.0046  1.0000  0.0040  -1.4289   0.0000   0.0000   0.0000   0.2375
 -14.000  -0.4848   0.17427   0.17177  -0.0062  1.0000  0.0042  -1.4191   0.0000   0.0000   0.0000   0.2340
 -13.500  -0.4722   0.16869   0.16620  -0.0077  1.0000  0.0043  -1.4134   0.0000   0.0000   0.0000   0.2306
 -13.000  -0.4597   0.16322   0.16075  -0.0092  1.0000  0.0044  -1.4200   0.0000   0.0000   0.0000   0.2271
 -12.500  -0.4479   0.15778   0.15532  -0.0106  1.0000  0.0045  -1.4910   0.0000   0.0000   0.0000   0.2235
 -12.000  -0.4371   0.15242   0.14998  -0.0119  1.0000  0.0045  -1.5677   0.0000   0.0000   0.0000   0.2200
  -2.000   0.4594   0.01298   0.00806  -0.1731  0.9515  0.0097  -2.1400   0.0000   0.0000   0.0000   0.6285
  -1.500   0.5385   0.01056   0.00513  -0.1779  0.9505  0.0090  -1.9384   0.0000   0.0000   0.0000   0.5814
  -1.000   0.6079   0.00944   0.00389  -0.1807  0.9445  0.0118  -1.3959   0.0000   0.0000   0.0000   0.5479
  -0.500   0.6757   0.00857   0.00305  -0.1831  0.9374  0.0558  -0.9666   0.0000   0.0000   0.0000   0.5212
   0.000   0.7476   0.00724   0.00300  -0.1875  0.9297  0.5850  -0.6037   0.0000   0.0000   0.0000   0.5005
   0.500   0.8032   0.00623   0.00267  -0.1869  0.9135  1.0000  -0.6647   0.0000   0.0000   0.0000   0.4819
   1.000   0.8823   0.00587   0.00219  -0.1918  0.8900  1.0000  -0.7582   0.0000   0.0000   0.0000   0.4661
   1.500   0.9697   0.00580   0.00188  -0.1985  0.8339  1.0000  -0.8914   0.0000   0.0000   0.0000   0.4531
   2.000   1.0236   0.00644   0.00206  -0.1978  0.7390  1.0000  -1.0511   0.0000   0.0000   0.0000   0.4410
   2.500   1.0640   0.00750   0.00252  -0.1942  0.6169  1.0000  -1.3735   0.0000   0.0000   0.0000   0.4299
   3.000   1.0986   0.00929   0.00329  -0.1900  0.4169  1.0000  -1.7231   0.0000   0.0000   0.0000   0.4198
   3.500   1.1403   0.01092   0.00412  -0.1876  0.2553  1.0000  -2.1157   0.0000   0.0000   0.0000   0.4108
   4.000   1.1829   0.01261   0.00509  -0.1855  0.1158  1.0000  -2.5477   0.0000   0.0000   0.0000   0.4026
   4.500   1.2260   0.01429   0.00625  -0.1833  0.0223  1.0000  -3.0155   0.0000   0.0000   0.0000   0.3947
   5.000   1.2732   0.01537   0.00740  -0.1816  0.0124  1.0000  -3.4923   0.0000   0.0000   0.0000   0.3872
   5.500   1.3197   0.01652   0.00870  -0.1798  0.0106  1.0000  -4.0181   0.0000   0.0000   0.0000   0.3802
   6.000   1.3622   0.01827   0.01067  -0.1771  0.0096  1.0000  -4.8030   0.0000   0.0000   0.0000   0.3734
   6.500   1.4022   0.02030   0.01291  -0.1740  0.0092  1.0000  -5.7337   0.0000   0.0000   0.0000   0.3668
   7.000   1.4416   0.02245   0.01531  -0.1709  0.0085  1.0000  -6.7182   0.0000   0.0000   0.0000   0.3606
   7.500   1.4796   0.02519   0.01835  -0.1675  0.0077  1.0000  -7.6950   0.0000   0.0000   0.0000   0.3546
   8.000   1.5160   0.02821   0.02166  -0.1643  0.0065  1.0000  -8.8890   0.0000   0.0000   0.0000   0.3491
   9.000   1.5797   0.03509   0.02955  -0.1563  0.0043  1.0000  -11.1855   0.0000   0.0000   0.0000   0.3382
   9.500   1.5984   0.03942   0.03449  -0.1506  0.0033  1.0000  -12.1803   0.0000   0.0000   0.0000   0.3328
  10.000   1.5996   0.04517   0.04097  -0.1422  0.0027  1.0000  -12.6912   0.0000   0.0000   0.0000   0.3268
  10.500   1.5939   0.04921   0.04541  -0.1338  0.0024  1.0000  -13.4609   0.0000   0.0000   0.0000   0.3211
  11.000   1.5836   0.05388   0.05045  -0.1265  0.0023  1.0000  -14.2274   0.0000   0.0000   0.0000   0.3163
  11.500   1.5446   0.06338   0.06053  -0.1192  0.0022  1.0000  -14.0774   0.0000   0.0000   0.0000   0.3128
  12.000   1.4981   0.07573   0.07343  -0.1170  0.0022  1.0000  -13.6738   0.0000   0.0000   0.0000   0.3129
  12.500   1.4574   0.09009   0.08819  -0.1217  0.0022  1.0000  -13.3816   0.0000   0.0000   0.0000   0.3174


xflr5 v6.61

 Calculated polar for: E63  (4.25%)

 1 1 Reynolds number fixed          Mach number fixed         

 xtrf =   1.000 (top)        1.000 (bottom)
 Mach =   0.000     Re =     0.100 e 6     Ncrit =   6.000

  alpha     CL        CD       CDp       Cm    Top Xtr Bot Xtr   Cpmin    Chinge    XCp    
 ------- -------- --------- --------- -------- ------- ------- -------- --------- ---------
 -15.000  -0.4996   0.18713   0.18145  -0.0075  1.0000  0.0173  -1.3727   0.0000   0.0000   0.0000   0.2314
 -14.500  -0.4864   0.18208   0.17643  -0.0097  1.0000  0.0175  -1.3873   0.0000   0.0000   0.0000   0.2267
 -14.000  -0.4741   0.17720   0.17158  -0.0118  1.0000  0.0176  -1.4072   0.0000   0.0000   0.0000   0.2219
 -13.500  -0.4611   0.17063   0.16506  -0.0127  1.0000  0.0181  -1.3504   0.0000   0.0000   0.0000   0.2194
  -6.000  -0.3675   0.09641   0.09196  -0.0135  1.0000  0.0321  -1.4712   0.0000   0.0000   0.0000   0.2119
  -5.500  -0.3600   0.09150   0.08713  -0.0146  1.0000  0.0340  -1.4920   0.0000   0.0000   0.0000   0.2081
  -5.000  -0.3387   0.08618   0.08188  -0.0220  1.0000  0.0359  -1.6011   0.0000   0.0000   0.0000   0.1837
  -4.500  -0.3192   0.07973   0.07550  -0.0243  1.0000  0.0372  -1.5663   0.0000   0.0000   0.0000   0.1723
  -4.000  -0.2676   0.07262   0.06835  -0.0378  1.0000  0.0418  -1.6237   0.0000   0.0000   0.0000   0.1067
  -3.000  -0.1238   0.05595   0.05144  -0.0660  0.9950  0.0561  -1.4574   0.0000   0.0000   0.0000  -0.2871
  -2.500  -0.0113   0.04696   0.04212  -0.0873  0.9919  0.0711  -1.3201   0.0000   0.0000   0.0000  -7.5282
  -1.500   0.2561   0.02816   0.02120  -0.1274  0.9940  0.0336  -1.7282   0.0000   0.0000   0.0000   0.7492
  -1.000   0.3579   0.02365   0.01530  -0.1363  0.9938  0.0291  -1.7948   0.0000   0.0000   0.0000   0.6317
  -0.500   0.4426   0.02150   0.01268  -0.1422  0.9903  0.0354  -1.4952   0.0000   0.0000   0.0000   0.5715
   0.000   0.5330   0.01977   0.01138  -0.1497  0.9875  0.2037  -1.2720   0.0000   0.0000   0.0000   0.5306
   0.500   0.5995   0.01852   0.01133  -0.1520  0.9763  1.0000  -0.7670   0.0000   0.0000   0.0000   0.5029
   1.000   0.6738   0.01879   0.01124  -0.1561  0.9611  1.0000  -0.5952   0.0000   0.0000   0.0000   0.4806
   1.500   0.7472   0.01882   0.01112  -0.1598  0.9444  1.0000  -0.6747   0.0000   0.0000   0.0000   0.4623
   2.000   0.8186   0.01862   0.01093  -0.1628  0.9249  1.0000  -0.7723   0.0000   0.0000   0.0000   0.4467
   2.500   0.8906   0.01815   0.01059  -0.1654  0.9035  1.0000  -0.8984   0.0000   0.0000   0.0000   0.4331
   3.000   0.9605   0.01738   0.01006  -0.1669  0.8778  1.0000  -1.1004   0.0000   0.0000   0.0000   0.4208
   3.500   1.0305   0.01644   0.00946  -0.1680  0.8428  1.0000  -1.5618   0.0000   0.0000   0.0000   0.4095
   4.000   1.1118   0.01545   0.00882  -0.1711  0.7829  1.0000  -2.1069   0.0000   0.0000   0.0000   0.3998
   4.500   1.1987   0.01527   0.00850  -0.1749  0.6379  1.0000  -2.7422   0.0000   0.0000   0.0000   0.3912
   5.000   1.2329   0.01782   0.00966  -0.1696  0.3815  1.0000  -3.1942   0.0000   0.0000   0.0000   0.3823
   5.500   1.2572   0.02154   0.01181  -0.1646  0.1371  1.0000  -3.5627   0.0000   0.0000   0.0000   0.3750
   6.000   1.2864   0.02564   0.01522  -0.1598  0.0409  1.0000  -3.8365   0.0000   0.0000   0.0000   0.3678
   6.500   1.3192   0.02887   0.01879  -0.1554  0.0318  1.0000  -4.3888   0.0000   0.0000   0.0000   0.3607
   7.000   1.3533   0.03274   0.02290  -0.1513  0.0283  1.0000  -5.0684   0.0000   0.0000   0.0000   0.3541
   7.500   1.3987   0.03757   0.02822  -0.1489  0.0248  1.0000  -5.7856   0.0000   0.0000   0.0000   0.3481
   8.000   1.4441   0.04380   0.03508  -0.1467  0.0229  1.0000  -6.4347   0.0000   0.0000   0.0000   0.3425
   8.500   1.4717   0.05179   0.04416  -0.1418  0.0217  1.0000  -6.7818   0.0000   0.0000   0.0000   0.3367
   9.000   1.4745   0.06047   0.05414  -0.1338  0.0208  1.0000  -6.8074   0.0000   0.0000   0.0000   0.3306
   9.500   1.4583   0.06967   0.06430  -0.1252  0.0209  1.0000  -6.7592   0.0000   0.0000   0.0000   0.3251
  10.000   1.4242   0.07776   0.07303  -0.1162  0.0212  1.0000  -6.6535   0.0000   0.0000   0.0000   0.3203
  10.500   1.3845   0.08659   0.08237  -0.1104  0.0213  1.0000  -6.5183   0.0000   0.0000   0.0000   0.3179
  11.000   1.3450   0.09708   0.09328  -0.1100  0.0216  1.0000  -6.3556   0.0000   0.0000   0.0000   0.3192
  11.500   1.3099   0.10965   0.10615  -0.1154  0.0218  1.0000  -6.1608   0.0000   0.0000   0.0000   0.3248
  12.000   1.2843   0.12403   0.12072  -0.1250  0.0221  1.0000  -5.9457   0.0000   0.0000   0.0000   0.3334
  12.500   1.2462   0.15590   0.15259  -0.1508  0.0255  1.0000  -4.4393   0.0000   0.0000   0.0000   0.3571
  13.000   1.2444   0.16937   0.16598  -0.1592  0.0265  1.0000  -4.1709   0.0000   0.0000   0.0000   0.3636


xflr5 v6.61

 Calculated polar for: E63  (4.25%)

 1 1 Reynolds number fixed          Mach number fixed         

 xtrf =   1.000 (top)        1.000 (bottom)
 Mach =   0.000     Re =     0.080 e 6     Ncrit =   6.000

  alpha     CL        CD       CDp       Cm    Top Xtr Bot Xtr   Cpmin    Chinge    XCp    
 ------- -------- --------- --------- -------- ------- ------- -------- --------- ---------
 -15.000  -0.4994   0.18808   0.18174  -0.0083  1.0000  0.0213  -1.3848   0.0000   0.0000   0.0000   0.2298
 -14.500  -0.4862   0.18236   0.17606  -0.0100  1.0000  0.0217  -1.3608   0.0000   0.0000   0.0000   0.2259
 -14.000  -0.4730   0.17664   0.17037  -0.0115  1.0000  0.0227  -1.3093   0.0000   0.0000   0.0000   0.2225
 -13.500  -0.4604   0.17126   0.16504  -0.0131  1.0000  0.0237  -1.3150   0.0000   0.0000   0.0000   0.2184
 -13.000  -0.4483   0.16623   0.16003  -0.0149  1.0000  0.0248  -1.3509   0.0000   0.0000   0.0000   0.2138
 -12.500  -0.4387   0.16213   0.15599  -0.0171  1.0000  0.0252  -1.4300   0.0000   0.0000   0.0000   0.2082
 -12.000  -0.4253   0.15503   0.14893  -0.0172  1.0000  0.0265  -1.3493   0.0000   0.0000   0.0000   0.2067
 -11.500  -0.4144   0.14971   0.14366  -0.0183  1.0000  0.0280  -1.3481   0.0000   0.0000   0.0000   0.2032
 -11.000  -0.4050   0.14506   0.13908  -0.0197  1.0000  0.0292  -1.3868   0.0000   0.0000   0.0000   0.1987
 -10.500  -0.3999   0.14176   0.13587  -0.0216  1.0000  0.0297  -1.4705   0.0000   0.0000   0.0000   0.1935
 -10.000  -0.3867   0.13387   0.12803  -0.0208  1.0000  0.0309  -1.3746   0.0000   0.0000   0.0000   0.1938
  -9.500  -0.3780   0.12848   0.12269  -0.0209  1.0000  0.0325  -1.3438   0.0000   0.0000   0.0000   0.1923
  -9.000  -0.3711   0.12355   0.11784  -0.0211  1.0000  0.0343  -1.3415   0.0000   0.0000   0.0000   0.1908
  -8.500  -0.3672   0.11942   0.11382  -0.0215  1.0000  0.0356  -1.3765   0.0000   0.0000   0.0000   0.1893
  -8.000  -0.3691   0.11628   0.11082  -0.0217  1.0000  0.0360  -1.4440   0.0000   0.0000   0.0000   0.1895
  -7.500  -0.3604   0.10961   0.10423  -0.0196  1.0000  0.0376  -1.3802   0.0000   0.0000   0.0000   0.1937
  -7.000  -0.3616   0.10547   0.10022  -0.0176  1.0000  0.0395  -1.3930   0.0000   0.0000   0.0000   0.1995
  -6.500  -0.3678   0.10211   0.09701  -0.0157  1.0000  0.0411  -1.4449   0.0000   0.0000   0.0000   0.2060
  -6.000  -0.3643   0.09839   0.09344  -0.0189  1.0000  0.0420  -1.5590   0.0000   0.0000   0.0000   0.1966
  -5.500  -0.3559   0.09212   0.08724  -0.0165  1.0000  0.0448  -1.4758   0.0000   0.0000   0.0000   0.2023
  -5.000  -0.3291   0.08706   0.08225  -0.0274  1.0000  0.0478  -1.6093   0.0000   0.0000   0.0000   0.1654
  -4.500  -0.3168   0.08065   0.07592  -0.0249  1.0000  0.0521  -1.4972   0.0000   0.0000   0.0000   0.1700
  -4.000  -0.2799   0.07389   0.06918  -0.0330  1.0000  0.0566  -1.4986   0.0000   0.0000   0.0000   0.1302
  -3.500  -0.2273   0.06655   0.06180  -0.0441  1.0000  0.0633  -1.4734   0.0000   0.0000   0.0000   0.0537
  -3.000  -0.1447   0.05817   0.05320  -0.0619  1.0000  0.0751  -1.4381   0.0000   0.0000   0.0000  -0.1813
  -2.500  -0.0648   0.05058   0.04541  -0.0754  1.0000  0.0911  -1.3055   0.0000   0.0000   0.0000  -0.9214
  -1.500   0.2188   0.03055   0.02325  -0.1205  1.0000  0.0397  -1.6988   0.0000   0.0000   0.0000   0.8026
  -1.000   0.3249   0.02568   0.01683  -0.1306  1.0000  0.0360  -1.7747   0.0000   0.0000   0.0000   0.6528
  -0.500   0.4006   0.02337   0.01403  -0.1348  1.0000  0.0405  -1.5439   0.0000   0.0000   0.0000   0.5867
   0.000   0.4723   0.02226   0.01268  -0.1383  1.0000  0.0625  -1.3172   0.0000   0.0000   0.0000   0.5426
   0.500   0.5460   0.02016   0.01240  -0.1423  0.9952  1.0000  -1.0012   0.0000   0.0000   0.0000   0.5100
   1.000   0.6250   0.02099   0.01269  -0.1478  0.9799  1.0000  -0.5621   0.0000   0.0000   0.0000   0.4853
   1.500   0.7022   0.02146   0.01292  -0.1527  0.9624  1.0000  -0.6387   0.0000   0.0000   0.0000   0.4659
   2.000   0.7765   0.02160   0.01302  -0.1567  0.9418  1.0000  -0.7302   0.0000   0.0000   0.0000   0.4497
   2.500   0.8498   0.02144   0.01297  -0.1600  0.9187  1.0000  -0.8470   0.0000   0.0000   0.0000   0.4357
   3.000   0.9247   0.02087   0.01266  -0.1629  0.8934  1.0000  -1.0242   0.0000   0.0000   0.0000   0.4231
   3.500   0.9963   0.01993   0.01210  -0.1643  0.8622  1.0000  -1.4040   0.0000   0.0000   0.0000   0.4114
   4.000   1.0683   0.01877   0.01141  -0.1651  0.8189  1.0000  -1.8979   0.0000   0.0000   0.0000   0.4005
   4.500   1.1535   0.01756   0.01062  -0.1679  0.7367  1.0000  -2.4814   0.0000   0.0000   0.0000   0.3909
   5.000   1.2257   0.01808   0.01073  -0.1683  0.5478  1.0000  -3.1125   0.0000   0.0000   0.0000   0.3820
   5.500   1.2490   0.02178   0.01251  -0.1620  0.2473  1.0000  -3.4969   0.0000   0.0000   0.0000   0.3738
   6.000   1.2748   0.02668   0.01600  -0.1572  0.0607  1.0000  -3.7549   0.0000   0.0000   0.0000   0.3668
   6.500   1.3060   0.03042   0.01982  -0.1526  0.0405  1.0000  -4.1938   0.0000   0.0000   0.0000   0.3597
   7.000   1.3396   0.03444   0.02418  -0.1483  0.0344  1.0000  -4.8325   0.0000   0.0000   0.0000   0.3530
   7.500   1.3889   0.04001   0.03025  -0.1462  0.0314  1.0000  -5.4934   0.0000   0.0000   0.0000   0.3469
   8.000   1.4327   0.04643   0.03718  -0.1442  0.0275  1.0000  -6.1673   0.0000   0.0000   0.0000   0.3417
   8.500   1.4607   0.05477   0.04681  -0.1389  0.0269  1.0000  -6.4165   0.0000   0.0000   0.0000   0.3355
   9.000   1.4637   0.06375   0.05708  -0.1313  0.0263  1.0000  -6.4467   0.0000   0.0000   0.0000   0.3296
   9.500   1.4448   0.07261   0.06697  -0.1228  0.0256  1.0000  -6.3603   0.0000   0.0000   0.0000   0.3244
  10.000   1.4093   0.08071   0.07572  -0.1142  0.0256  1.0000  -6.2342   0.0000   0.0000   0.0000   0.3199
  10.500   1.3682   0.08980   0.08533  -0.1092  0.0259  1.0000  -6.0752   0.0000   0.0000   0.0000   0.3181
  11.000   1.3276   0.10079   0.09672  -0.1099  0.0263  1.0000  -5.8852   0.0000   0.0000   0.0000   0.3204
  11.500   1.2930   0.11399   0.11020  -0.1166  0.0269  1.0000  -5.6710   0.0000   0.0000   0.0000   0.3271
  12.000   1.2702   0.12870   0.12498  -0.1267  0.0274  1.0000  -5.4510   0.0000   0.0000   0.0000   0.3360
  12.500   1.2419   0.15619   0.15245  -0.1483  0.0326  1.0000  -4.3060   0.0000   0.0000   0.0000   0.3556
  13.000   1.2435   0.16807   0.16429  -0.1550  0.0334  1.0000  -4.1778   0.0000   0.0000   0.0000   0.3603


xflr5 v6.61

 Calculated polar for: E63  (4.25%)

 1 1 Reynolds number fixed          Mach number fixed         

 xtrf =   1.000 (top)        1.000 (bottom)
 Mach =   0.000     Re =     0.030 e 6     Ncrit =   6.000

  alpha     CL        CD       CDp       Cm    Top Xtr Bot Xtr   Cpmin    Chinge    XCp    
 ------- -------- --------- --------- -------- ------- ------- -------- --------- ---------
 -15.000  -0.5054   0.19267   0.18247  -0.0094  1.0000  0.0714  -1.2801   0.0000   0.0000   0.0000   0.2281
 -14.500  -0.4951   0.18931   0.17918  -0.0119  1.0000  0.0743  -1.2957   0.0000   0.0000   0.0000   0.2229
 -14.000  -0.4796   0.18242   0.17235  -0.0130  1.0000  0.0784  -1.2701   0.0000   0.0000   0.0000   0.2198
 -13.500  -0.4710   0.17919   0.16920  -0.0153  1.0000  0.0813  -1.3057   0.0000   0.0000   0.0000   0.2146
 -13.000  -0.4554   0.17218   0.16222  -0.0162  1.0000  0.0862  -1.2745   0.0000   0.0000   0.0000   0.2116
 -12.000  -0.4342   0.16225   0.15247  -0.0189  1.0000  0.0947  -1.2817   0.0000   0.0000   0.0000   0.2038
 -10.500  -0.4066   0.14712   0.13767  -0.0217  1.0000  0.1095  -1.2757   0.0000   0.0000   0.0000   0.1943
 -10.000  -0.3968   0.14144   0.13209  -0.0219  1.0000  0.1160  -1.2562   0.0000   0.0000   0.0000   0.1924
  -8.500  -0.3480   0.12755   0.11888  -0.0223  1.0000  0.1431  -1.1717   0.0000   0.0000   0.0000   0.1840
  -6.000  -0.3683   0.10388   0.09588  -0.0175  1.0000  0.1901  -1.3160   0.0000   0.0000   0.0000   0.2009
  -2.000   0.0636   0.04562   0.03619  -0.0985  1.0000  0.0991  -1.5265   0.0000   0.0000   0.0000   1.8084
  -1.500   0.1843   0.03836   0.02766  -0.1157  1.0000  0.0921  -1.5624   0.0000   0.0000   0.0000   0.8799
  -1.000   0.2849   0.03366   0.02137  -0.1255  1.0000  0.0940  -1.5220   0.0000   0.0000   0.0000   0.6915
  -0.500   0.3566   0.03108   0.01773  -0.1284  1.0000  0.1178  -1.3995   0.0000   0.0000   0.0000   0.6104
   0.500   0.4807   0.02667   0.01427  -0.1305  1.0000  1.0000  -1.1572   0.0000   0.0000   0.0000   0.5208
   1.000   0.5294   0.02778   0.01455  -0.1304  1.0000  1.0000  -0.7333   0.0000   0.0000   0.0000   0.4951
   1.500   0.5753   0.02909   0.01539  -0.1301  1.0000  1.0000  -0.5495   0.0000   0.0000   0.0000   0.4746
   2.000   0.6188   0.03062   0.01667  -0.1298  1.0000  1.0000  -0.5997   0.0000   0.0000   0.0000   0.4577
   2.500   0.6599   0.03242   0.01842  -0.1295  1.0000  1.0000  -0.6556   0.0000   0.0000   0.0000   0.4438
   3.000   0.6982   0.03457   0.02063  -0.1293  1.0000  1.0000  -0.7187   0.0000   0.0000   0.0000   0.4322
   3.500   0.7334   0.03714   0.02342  -0.1293  1.0000  1.0000  -0.7894   0.0000   0.0000   0.0000   0.4228
   4.000   0.8185   0.03992   0.02673  -0.1383  0.9605  1.0000  -0.9528   0.0000   0.0000   0.0000   0.4150
   4.500   0.9110   0.04129   0.02887  -0.1466  0.9101  1.0000  -1.2944   0.0000   0.0000   0.0000   0.4064
   5.000   1.0016   0.04126   0.02987  -0.1518  0.8494  1.0000  -1.8294   0.0000   0.0000   0.0000   0.3966
   5.500   1.1012   0.03861   0.02867  -0.1536  0.7736  1.0000  -2.4600   0.0000   0.0000   0.0000   0.3839
   6.000   1.2062   0.03313   0.02470  -0.1489  0.6253  1.0000  -3.2561   0.0000   0.0000   0.0000   0.3673
   6.500   1.2342   0.03520   0.02523  -0.1368  0.3468  1.0000  -3.6180   0.0000   0.0000   0.0000   0.3540
   7.000   1.2382   0.04241   0.03064  -0.1287  0.1721  1.0000  -3.7381   0.0000   0.0000   0.0000   0.3464
   7.500   1.2775   0.04936   0.03739  -0.1260  0.1022  1.0000  -4.0775   0.0000   0.0000   0.0000   0.3405
   8.000   1.3526   0.05758   0.04642  -0.1273  0.0778  1.0000  -4.6741   0.0000   0.0000   0.0000   0.3354
   8.500   1.3954   0.06708   0.05713  -0.1249  0.0716  1.0000  -5.0140   0.0000   0.0000   0.0000   0.3303
   9.000   1.3970   0.07663   0.06803  -0.1191  0.0686  1.0000  -5.0595   0.0000   0.0000   0.0000   0.3256
   9.500   1.3866   0.08594   0.07816  -0.1139  0.0664  1.0000  -5.0939   0.0000   0.0000   0.0000   0.3219
  10.000   1.3520   0.09525   0.08815  -0.1087  0.0670  1.0000  -4.9437   0.0000   0.0000   0.0000   0.3197
  10.500   1.3069   0.10573   0.09909  -0.1072  0.0689  1.0000  -4.6968   0.0000   0.0000   0.0000   0.3208
  11.000   1.2711   0.11808   0.11168  -0.1114  0.0707  1.0000  -4.4627   0.0000   0.0000   0.0000   0.3259
  12.000   1.2241   0.15031   0.14395  -0.1343  0.0779  1.0000  -3.7387   0.0000   0.0000   0.0000   0.3471
  13.000   1.2192   0.17715   0.17057  -0.1529  0.0842  1.0000  -3.2974   0.0000   0.0000   0.0000   0.3618
  13.500   1.2228   0.18878   0.18212  -0.1612  0.0891  1.0000  -3.1264   0.0000   0.0000   0.0000   0.3676
  14.000   1.2322   0.19986   0.19317  -0.1683  0.0976  1.0000  -3.0075   0.0000   0.0000   0.0000   0.3718


xflr5 v6.61

 Calculated polar for: E63  (4.25%)

 1 1 Reynolds number fixed          Mach number fixed         

 xtrf =   1.000 (top)        1.000 (bottom)
 Mach =   0.000     Re =     0.040 e 6     Ncrit =   6.000

  alpha     CL        CD       CDp       Cm    Top Xtr Bot Xtr   Cpmin    Chinge    XCp    
 ------- -------- --------- --------- -------- ------- ------- -------- --------- ---------
 -13.000  -0.4508   0.16951   0.16082  -0.0160  1.0000  0.0576  -1.2912   0.0000   0.0000   0.0000   0.2115
 -12.500  -0.4405   0.16501   0.15640  -0.0178  1.0000  0.0606  -1.3107   0.0000   0.0000   0.0000   0.2069
 -12.000  -0.4288   0.15928   0.15075  -0.0188  1.0000  0.0627  -1.3058   0.0000   0.0000   0.0000   0.2033
 -11.500  -0.4185   0.15427   0.14581  -0.0200  1.0000  0.0667  -1.3044   0.0000   0.0000   0.0000   0.1996
 -11.000  -0.4086   0.14886   0.14051  -0.0209  1.0000  0.0692  -1.3035   0.0000   0.0000   0.0000   0.1963
 -10.500  -0.3999   0.14398   0.13572  -0.0218  1.0000  0.0734  -1.3011   0.0000   0.0000   0.0000   0.1931
 -10.000  -0.3906   0.13839   0.13023  -0.0222  1.0000  0.0764  -1.2890   0.0000   0.0000   0.0000   0.1908
  -9.500  -0.3848   0.13403   0.12595  -0.0229  1.0000  0.0807  -1.2950   0.0000   0.0000   0.0000   0.1883
  -9.000  -0.3757   0.12821   0.12025  -0.0226  1.0000  0.0845  -1.2668   0.0000   0.0000   0.0000   0.1875
  -8.500  -0.3757   0.12483   0.11703  -0.0230  1.0000  0.0884  -1.3115   0.0000   0.0000   0.0000   0.1867
  -8.000  -0.3673   0.11892   0.11125  -0.0220  1.0000  0.0937  -1.2996   0.0000   0.0000   0.0000   0.1882
  -7.000  -0.3734   0.11158   0.10430  -0.0195  1.0000  0.1025  -1.3642   0.0000   0.0000   0.0000   0.1962
  -6.500  -0.3682   0.10640   0.09928  -0.0188  1.0000  0.1091  -1.3654   0.0000   0.0000   0.0000   0.1973
  -6.000  -0.3621   0.10145   0.09446  -0.0194  1.0000  0.1165  -1.3763   0.0000   0.0000   0.0000   0.1948
  -5.000  -0.3379   0.09044   0.08373  -0.0222  1.0000  0.1369  -1.3640   0.0000   0.0000   0.0000   0.1828
  -4.500  -0.3180   0.08463   0.07802  -0.0254  1.0000  0.1511  -1.3491   0.0000   0.0000   0.0000   0.1684
  -2.000   0.0732   0.04337   0.03509  -0.1003  1.0000  0.0869  -1.5041   0.0000   0.0000   0.0000   1.6271
  -1.500   0.2055   0.03524   0.02548  -0.1190  1.0000  0.0671  -1.6407   0.0000   0.0000   0.0000   0.8312
  -1.000   0.2993   0.03092   0.01996  -0.1276  1.0000  0.0724  -1.5597   0.0000   0.0000   0.0000   0.6773
  -0.500   0.3725   0.02838   0.01641  -0.1306  1.0000  0.0838  -1.4150   0.0000   0.0000   0.0000   0.6009
   0.000   0.4470   0.02635   0.01431  -0.1344  1.0000  0.1777  -1.3365   0.0000   0.0000   0.0000   0.5505
   0.500   0.4996   0.02439   0.01360  -0.1338  1.0000  1.0000  -1.1224   0.0000   0.0000   0.0000   0.5172
   1.000   0.5474   0.02552   0.01404  -0.1336  1.0000  1.0000  -0.6901   0.0000   0.0000   0.0000   0.4929
   1.500   0.5926   0.02686   0.01499  -0.1332  1.0000  1.0000  -0.5604   0.0000   0.0000   0.0000   0.4732
   2.000   0.6352   0.02843   0.01637  -0.1329  1.0000  1.0000  -0.6115   0.0000   0.0000   0.0000   0.4571
   2.500   0.6753   0.03030   0.01821  -0.1325  1.0000  1.0000  -0.6682   0.0000   0.0000   0.0000   0.4437
   3.000   0.7482   0.03239   0.02044  -0.1385  0.9771  1.0000  -0.7693   0.0000   0.0000   0.0000   0.4321
   3.500   0.8342   0.03358   0.02197  -0.1458  0.9418  1.0000  -0.9229   0.0000   0.0000   0.0000   0.4213
   4.000   0.9204   0.03389   0.02284  -0.1517  0.9020  1.0000  -1.2063   0.0000   0.0000   0.0000   0.4108
   4.500   1.0033   0.03327   0.02305  -0.1552  0.8538  1.0000  -1.7137   0.0000   0.0000   0.0000   0.4001
   5.000   1.0911   0.03103   0.02186  -0.1564  0.7956  1.0000  -2.2921   0.0000   0.0000   0.0000   0.3883
   5.500   1.1791   0.02790   0.01980  -0.1546  0.6940  1.0000  -2.9651   0.0000   0.0000   0.0000   0.3755
   6.000   1.2350   0.02806   0.01940  -0.1477  0.4529  1.0000  -3.5088   0.0000   0.0000   0.0000   0.3633
   6.500   1.2375   0.03371   0.02307  -0.1384  0.2003  1.0000  -3.6997   0.0000   0.0000   0.0000   0.3549
   7.000   1.2614   0.04034   0.02866  -0.1340  0.0901  1.0000  -3.9350   0.0000   0.0000   0.0000   0.3487
   7.500   1.3259   0.04662   0.03524  -0.1339  0.0652  1.0000  -4.5544   0.0000   0.0000   0.0000   0.3428
   8.000   1.3855   0.05425   0.04395  -0.1330  0.0549  1.0000  -5.1129   0.0000   0.0000   0.0000   0.3372
   8.500   1.4189   0.06309   0.05383  -0.1294  0.0516  1.0000  -5.4466   0.0000   0.0000   0.0000   0.3318
   9.000   1.4241   0.07278   0.06478  -0.1232  0.0511  1.0000  -5.4970   0.0000   0.0000   0.0000   0.3267
   9.500   1.4099   0.08236   0.07530  -0.1167  0.0513  1.0000  -5.4550   0.0000   0.0000   0.0000   0.3224
  10.000   1.3795   0.09121   0.08480  -0.1105  0.0516  1.0000  -5.3563   0.0000   0.0000   0.0000   0.3192
  10.500   1.3429   0.10035   0.09438  -0.1068  0.0520  1.0000  -5.2293   0.0000   0.0000   0.0000   0.3181
  11.000   1.2876   0.11290   0.10739  -0.1104  0.0539  1.0000  -4.8303   0.0000   0.0000   0.0000   0.3238
  11.500   1.2464   0.12950   0.12413  -0.1223  0.0559  1.0000  -4.3839   0.0000   0.0000   0.0000   0.3357
  12.000   1.2321   0.14566   0.14026  -0.1338  0.0579  1.0000  -4.0705   0.0000   0.0000   0.0000   0.3456
  12.500   1.2222   0.16246   0.15692  -0.1463  0.0614  1.0000  -3.6489   0.0000   0.0000   0.0000   0.3564
  13.000   1.2263   0.17448   0.16888  -0.1533  0.0646  1.0000  -3.5140   0.0000   0.0000   0.0000   0.3611
  13.500   1.2313   0.18701   0.18134  -0.1614  0.0713  1.0000  -3.3015   0.0000   0.0000   0.0000   0.3667
  14.000   1.2388   0.20743   0.20173  -0.1774  0.1490  1.0000  -2.6534   0.0000   0.0000   0.0000   0.3787
  14.500   1.2494   0.21620   0.21050  -0.1831  0.1489  1.0000  -2.6294   0.0000   0.0000   0.0000   0.3813
  15.000   1.2592   0.22363   0.21791  -0.1884  0.1424  1.0000  -2.6170   0.0000   0.0000   0.0000   0.3836


xflr5 v6.61

 Calculated polar for: E63  (4.25%)

 1 1 Reynolds number fixed          Mach number fixed         

 xtrf =   1.000 (top)        1.000 (bottom)
 Mach =   0.000     Re =     0.160 e 6     Ncrit =   6.000

  alpha     CL        CD       CDp       Cm    Top Xtr Bot Xtr   Cpmin    Chinge    XCp    
 ------- -------- --------- --------- -------- ------- ------- -------- --------- ---------
 -10.500  -0.3987   0.13669   0.13250  -0.0179  1.0000  0.0133  -1.4643   0.0000   0.0000   0.0000   0.2026
 -10.000  -0.3900   0.13134   0.12720  -0.0182  1.0000  0.0139  -1.4315   0.0000   0.0000   0.0000   0.2009
  -9.500  -0.3821   0.12615   0.12205  -0.0184  1.0000  0.0144  -1.4138   0.0000   0.0000   0.0000   0.1994
  -9.000  -0.3752   0.12110   0.11705  -0.0185  1.0000  0.0151  -1.4034   0.0000   0.0000   0.0000   0.1986
  -8.500  -0.3696   0.11618   0.11220  -0.0182  1.0000  0.0158  -1.3985   0.0000   0.0000   0.0000   0.1986
  -8.000  -0.3658   0.11156   0.10766  -0.0177  1.0000  0.0167  -1.4061   0.0000   0.0000   0.0000   0.1997
  -7.500  -0.3653   0.10750   0.10368  -0.0168  1.0000  0.0173  -1.4473   0.0000   0.0000   0.0000   0.2022
  -7.000  -0.3716   0.10422   0.10052  -0.0148  1.0000  0.0175  -1.5306   0.0000   0.0000   0.0000   0.2085
  -6.500  -0.3805   0.10115   0.09757  -0.0129  1.0000  0.0176  -1.6321   0.0000   0.0000   0.0000   0.2148
  -6.000  -0.3768   0.09550   0.09200  -0.0108  1.0000  0.0181  -1.5564   0.0000   0.0000   0.0000   0.2200
  -5.500  -0.3707   0.09058   0.08714  -0.0111  1.0000  0.0190  -1.5358   0.0000   0.0000   0.0000   0.2189
  -5.000  -0.3109   0.08208   0.07861  -0.0268  0.9926  0.0211  -1.5976   0.0000   0.0000   0.0000   0.1620
  -4.500  -0.2529   0.07360   0.07010  -0.0403  0.9851  0.0224  -1.5831   0.0000   0.0000   0.0000   0.0884
  -3.000   0.0373   0.04460   0.04049  -0.1035  0.9699  0.0366  -1.5402   0.0000   0.0000   0.0000   3.0454
  -2.000   0.2788   0.02613   0.02029  -0.1397  0.9723  0.0254  -1.8508   0.0000   0.0000   0.0000   0.7533
  -1.500   0.3783   0.02102   0.01405  -0.1491  0.9732  0.0206  -1.9230   0.0000   0.0000   0.0000   0.6455
  -1.000   0.4622   0.01833   0.01067  -0.1546  0.9707  0.0212  -1.7357   0.0000   0.0000   0.0000   0.5853
  -0.500   0.5404   0.01697   0.00920  -0.1595  0.9654  0.0295  -1.3312   0.0000   0.0000   0.0000   0.5453
   0.500   0.6834   0.01418   0.00826  -0.1663  0.9486  1.0000  -0.5823   0.0000   0.0000   0.0000   0.4926
   1.000   0.7528   0.01394   0.00784  -0.1689  0.9352  1.0000  -0.6534   0.0000   0.0000   0.0000   0.4732
   1.500   0.8203   0.01359   0.00743  -0.1709  0.9195  1.0000  -0.7388   0.0000   0.0000   0.0000   0.4567
   2.000   0.8888   0.01300   0.00689  -0.1727  0.9022  1.0000  -0.8504   0.0000   0.0000   0.0000   0.4422
   2.500   0.9534   0.01244   0.00646  -0.1736  0.8767  1.0000  -1.0094   0.0000   0.0000   0.0000   0.4295
   3.000   1.0294   0.01174   0.00593  -0.1767  0.8399  1.0000  -1.3920   0.0000   0.0000   0.0000   0.4186
   3.500   1.1251   0.01120   0.00539  -0.1838  0.7560  1.0000  -1.9839   0.0000   0.0000   0.0000   0.4097
   4.000   1.1805   0.01234   0.00580  -0.1826  0.5866  1.0000  -2.4485   0.0000   0.0000   0.0000   0.4004
   4.500   1.2049   0.01493   0.00706  -0.1761  0.3516  1.0000  -2.8472   0.0000   0.0000   0.0000   0.3914
   5.000   1.2366   0.01757   0.00870  -0.1722  0.1648  1.0000  -3.2737   0.0000   0.0000   0.0000   0.3839
   5.500   1.2693   0.02081   0.01105  -0.1684  0.0337  1.0000  -3.6182   0.0000   0.0000   0.0000   0.3767
   6.000   1.3089   0.02310   0.01359  -0.1651  0.0238  1.0000  -4.0530   0.0000   0.0000   0.0000   0.3696
   6.500   1.3441   0.02589   0.01670  -0.1611  0.0211  1.0000  -4.7920   0.0000   0.0000   0.0000   0.3627
   7.000   1.3801   0.02889   0.01992  -0.1575  0.0182  1.0000  -5.6101   0.0000   0.0000   0.0000   0.3563
   7.500   1.4214   0.03348   0.02483  -0.1547  0.0171  1.0000  -6.3738   0.0000   0.0000   0.0000   0.3504
   8.000   1.4639   0.03870   0.03083  -0.1517  0.0153  1.0000  -7.0512   0.0000   0.0000   0.0000   0.3445
   8.500   1.4945   0.04542   0.03846  -0.1472  0.0143  1.0000  -7.5747   0.0000   0.0000   0.0000   0.3387
   9.000   1.5020   0.05327   0.04731  -0.1401  0.0128  1.0000  -7.9080   0.0000   0.0000   0.0000   0.3329
   9.500   1.4876   0.06244   0.05751  -0.1307  0.0127  1.0000  -7.8223   0.0000   0.0000   0.0000   0.3269
  10.000   1.4535   0.07043   0.06617  -0.1204  0.0127  1.0000  -7.6901   0.0000   0.0000   0.0000   0.3214
  10.500   1.4135   0.07923   0.07552  -0.1135  0.0127  1.0000  -7.5345   0.0000   0.0000   0.0000   0.3182
  11.000   1.3729   0.08967   0.08640  -0.1118  0.0129  1.0000  -7.3625   0.0000   0.0000   0.0000   0.3186
  11.500   1.3354   0.10225   0.09934  -0.1163  0.0130  1.0000  -7.1668   0.0000   0.0000   0.0000   0.3235
  12.000   1.3045   0.11750   0.11484  -0.1267  0.0132  1.0000  -6.9136   0.0000   0.0000   0.0000   0.3328
  13.000   1.2570   0.16735   0.16475  -0.1621  0.0166  1.0000  -4.6139   0.0000   0.0000   0.0000   0.3643
  13.500   1.2582   0.17975   0.17709  -0.1699  0.0170  1.0000  -4.3797   0.0000   0.0000   0.0000   0.3698


xflr5 v6.61

 Calculated polar for: E63  (4.25%)

 1 1 Reynolds number fixed          Mach number fixed         

 xtrf =   1.000 (top)        1.000 (bottom)
 Mach =   0.000     Re =     0.300 e 6     Ncrit =   6.000

  alpha     CL        CD       CDp       Cm    Top Xtr Bot Xtr   Cpmin    Chinge    XCp    
 ------- -------- --------- --------- -------- ------- ------- -------- --------- ---------
  -8.000  -0.3751   0.11060   0.10778  -0.0153  1.0000  0.0080  -1.6333   0.0000   0.0000   0.0000   0.2072
  -7.500  -0.3741   0.10612   0.10335  -0.0137  1.0000  0.0082  -1.5774   0.0000   0.0000   0.0000   0.2116
  -7.000  -0.3581   0.10056   0.09783  -0.0168  0.9975  0.0086  -1.5121   0.0000   0.0000   0.0000   0.2013
  -6.500  -0.3324   0.09442   0.09170  -0.0228  0.9919  0.0090  -1.4956   0.0000   0.0000   0.0000   0.1793
  -6.000  -0.2956   0.08725   0.08452  -0.0316  0.9850  0.0096  -1.4935   0.0000   0.0000   0.0000   0.1408
  -5.500  -0.2512   0.07959   0.07686  -0.0422  0.9775  0.0105  -1.5091   0.0000   0.0000   0.0000   0.0791
  -5.000  -0.1889   0.07132   0.06856  -0.0582  0.9704  0.0123  -1.6522   0.0000   0.0000   0.0000  -0.0622
  -0.500   0.6272   0.01180   0.00530  -0.1745  0.9458  0.0275  -1.1265   0.0000   0.0000   0.0000   0.5284
   0.000   0.6986   0.00965   0.00529  -0.1785  0.9408  0.8589  -0.5910   0.0000   0.0000   0.0000   0.5052
   0.500   0.7612   0.00911   0.00463  -0.1794  0.9298  1.0000  -0.6349   0.0000   0.0000   0.0000   0.4849
   1.000   0.8233   0.00874   0.00418  -0.1802  0.9150  1.0000  -0.7093   0.0000   0.0000   0.0000   0.4677
   1.500   0.8894   0.00835   0.00376  -0.1820  0.8951  1.0000  -0.8070   0.0000   0.0000   0.0000   0.4529
   2.000   0.9711   0.00787   0.00327  -0.1871  0.8621  1.0000  -0.9633   0.0000   0.0000   0.0000   0.4405
   2.500   1.0576   0.00781   0.00299  -0.1932  0.7880  1.0000  -1.3269   0.0000   0.0000   0.0000   0.4300
   3.000   1.1079   0.00871   0.00334  -0.1915  0.6669  1.0000  -1.7356   0.0000   0.0000   0.0000   0.4196
   3.500   1.1369   0.01072   0.00421  -0.1857  0.4559  1.0000  -2.0809   0.0000   0.0000   0.0000   0.4097
   4.000   1.1733   0.01268   0.00528  -0.1823  0.2765  1.0000  -2.4729   0.0000   0.0000   0.0000   0.4011
   4.500   1.2125   0.01476   0.00651  -0.1797  0.1198  1.0000  -2.9382   0.0000   0.0000   0.0000   0.3934
   5.000   1.2528   0.01687   0.00809  -0.1770  0.0235  1.0000  -3.3677   0.0000   0.0000   0.0000   0.3859
   5.500   1.2976   0.01833   0.00969  -0.1748  0.0161  1.0000  -3.8034   0.0000   0.0000   0.0000   0.3787
   6.000   1.3398   0.02011   0.01169  -0.1722  0.0136  1.0000  -4.4991   0.0000   0.0000   0.0000   0.3719
   6.500   1.3786   0.02230   0.01414  -0.1688  0.0126  1.0000  -5.3703   0.0000   0.0000   0.0000   0.3652
   7.000   1.4152   0.02508   0.01719  -0.1651  0.0119  1.0000  -6.2274   0.0000   0.0000   0.0000   0.3588
   7.500   1.4531   0.02814   0.02054  -0.1618  0.0105  1.0000  -7.1535   0.0000   0.0000   0.0000   0.3528
   8.000   1.4908   0.03391   0.02678  -0.1588  0.0095  1.0000  -7.9549   0.0000   0.0000   0.0000   0.3473
   8.500   1.5223   0.03847   0.03226  -0.1539  0.0082  1.0000  -8.7385   0.0000   0.0000   0.0000   0.3412
   9.000   1.5432   0.04275   0.03705  -0.1489  0.0066  1.0000  -9.6963   0.0000   0.0000   0.0000   0.3359
   9.500   1.5337   0.05189   0.04714  -0.1397  0.0060  1.0000  -9.7781   0.0000   0.0000   0.0000   0.3299
  10.000   1.5046   0.05938   0.05546  -0.1282  0.0058  1.0000  -9.6332   0.0000   0.0000   0.0000   0.3235
  10.500   1.4650   0.06827   0.06500  -0.1191  0.0057  1.0000  -9.3961   0.0000   0.0000   0.0000   0.3189
  11.000   1.4224   0.07879   0.07602  -0.1151  0.0057  1.0000  -9.1552   0.0000   0.0000   0.0000   0.3178
  11.500   1.3814   0.09142   0.08905  -0.1176  0.0057  1.0000  -8.9263   0.0000   0.0000   0.0000   0.3212
  12.000   1.3461   0.10693   0.10487  -0.1269  0.0059  1.0000  -8.6768   0.0000   0.0000   0.0000   0.3296
  12.500   1.3190   0.12560   0.12372  -0.1410  0.0061  1.0000  -8.3013   0.0000   0.0000   0.0000   0.3416


xflr5 v6.61

 Calculated polar for: NACA 4412

 1 1 Reynolds number fixed          Mach number fixed         

 xtrf =   1.000 (top)        1.000 (bottom)
 Mach =   0.000     Re =     0.160 e 6     Ncrit =   6.000

  alpha     CL        CD       CDp       Cm    Top Xtr Bot Xtr   Cpmin    Chinge    XCp    
 ------- -------- --------- --------- -------- ------- ------- -------- --------- ---------
 -15.000  -0.4129   0.17229   0.16770  -0.0210  1.0000  0.0386  -1.5575   0.0000   0.0000   0.0000   0.1798
 -14.500  -0.4077   0.16556   0.16099  -0.0260  1.0000  0.0407  -1.6910   0.0000   0.0000   0.0000   0.1674
 -14.000  -0.3924   0.15859   0.15404  -0.0277  1.0000  0.0413  -1.6482   0.0000   0.0000   0.0000   0.1608
 -13.500  -0.3768   0.15256   0.14802  -0.0292  1.0000  0.0428  -1.5965   0.0000   0.0000   0.0000   0.1541
 -13.000  -0.3671   0.14601   0.14151  -0.0319  1.0000  0.0451  -1.6332   0.0000   0.0000   0.0000   0.1450
 -12.500  -0.3712   0.13860   0.13414  -0.0369  1.0000  0.0462  -1.8337   0.0000   0.0000   0.0000   0.1332
 -12.000  -0.3503   0.13261   0.12818  -0.0365  1.0000  0.0478  -1.6907   0.0000   0.0000   0.0000   0.1287
 -11.500  -0.3498   0.12600   0.12162  -0.0398  1.0000  0.0516  -1.7795   0.0000   0.0000   0.0000   0.1196
 -10.000  -0.3757   0.09721   0.09301  -0.0468  1.0000  0.0354  -2.4654   0.0000   0.0000   0.0000   0.1109
  -9.500  -0.3971   0.08924   0.08517  -0.0472  1.0000  0.0354  -2.6745   0.0000   0.0000   0.0000   0.1180
  -9.000  -0.4413   0.08123   0.07734  -0.0455  1.0000  0.0355  -2.9750   0.0000   0.0000   0.0000   0.1354
  -8.500  -0.5222   0.04672   0.04231  -0.0762  0.9847  0.0347  -4.3079   0.0000   0.0000   0.0000   0.0935
  -8.000  -0.4912   0.03281   0.02684  -0.0865  0.9727  0.0367  -4.4762   0.0000   0.0000   0.0000   0.0628
  -7.500  -0.4336   0.02830   0.02157  -0.0903  0.9638  0.0395  -4.1876   0.0000   0.0000   0.0000   0.0304
  -7.000  -0.3703   0.02545   0.01824  -0.0935  0.9552  0.0435  -3.8124   0.0000   0.0000   0.0000  -0.0147
  -6.500  -0.3054   0.02272   0.01500  -0.0964  0.9460  0.0476  -3.5016   0.0000   0.0000   0.0000  -0.0788
  -6.000  -0.2383   0.02093   0.01296  -0.0991  0.9364  0.0535  -3.1401   0.0000   0.0000   0.0000  -0.1813
  -5.500  -0.1733   0.01932   0.01117  -0.1012  0.9258  0.0601  -2.7926   0.0000   0.0000   0.0000  -0.3522
  -5.000  -0.1102   0.01803   0.00976  -0.1027  0.9145  0.0690  -2.4680   0.0000   0.0000   0.0000  -0.7073
  -4.500  -0.0487   0.01690   0.00857  -0.1037  0.9025  0.0803  -2.1697   0.0000   0.0000   0.0000  -1.9290
  -4.000   0.0087   0.01597   0.00762  -0.1039  0.8877  0.0950  -1.8866   0.0000   0.0000   0.0000  12.4036
  -3.500   0.0663   0.01517   0.00683  -0.1041  0.8721  0.1153  -1.6313   0.0000   0.0000   0.0000   1.8463
  -3.000   0.1246   0.01445   0.00613  -0.1043  0.8561  0.1435  -1.3844   0.0000   0.0000   0.0000   1.0987
  -2.500   0.1820   0.01382   0.00559  -0.1043  0.8385  0.1817  -1.1637   0.0000   0.0000   0.0000   0.8297
  -2.000   0.2376   0.01330   0.00518  -0.1040  0.8181  0.2319  -0.9615   0.0000   0.0000   0.0000   0.6916
  -1.500   0.2933   0.01281   0.00484  -0.1038  0.7971  0.2996  -0.7790   0.0000   0.0000   0.0000   0.6056
  -1.000   0.3472   0.01222   0.00456  -0.1032  0.7747  0.4068  -0.6766   0.0000   0.0000   0.0000   0.5478
  -0.500   0.3931   0.01125   0.00455  -0.1005  0.7509  0.7027  -0.7128   0.0000   0.0000   0.0000   0.5053
   0.000   0.4736   0.01080   0.00438  -0.1041  0.7270  1.0000  -0.7692   0.0000   0.0000   0.0000   0.4686
   0.500   0.5259   0.01098   0.00425  -0.1031  0.7024  1.0000  -0.8116   0.0000   0.0000   0.0000   0.4442
   1.000   0.5776   0.01122   0.00424  -0.1022  0.6772  1.0000  -0.8555   0.0000   0.0000   0.0000   0.4244
   1.500   0.6298   0.01151   0.00431  -0.1013  0.6537  1.0000  -0.9018   0.0000   0.0000   0.0000   0.4077
   2.000   0.6821   0.01184   0.00443  -0.1004  0.6316  1.0000  -0.9511   0.0000   0.0000   0.0000   0.3936
   2.500   0.7342   0.01220   0.00465  -0.0996  0.6105  1.0000  -1.0031   0.0000   0.0000   0.0000   0.3815
   3.000   0.7863   0.01259   0.00492  -0.0988  0.5907  1.0000  -1.0592   0.0000   0.0000   0.0000   0.3710
   3.500   0.8385   0.01302   0.00524  -0.0981  0.5726  1.0000  -1.1206   0.0000   0.0000   0.0000   0.3618
   4.000   0.8903   0.01347   0.00564  -0.0973  0.5548  1.0000  -1.1898   0.0000   0.0000   0.0000   0.3536
   4.500   0.9416   0.01394   0.00610  -0.0965  0.5370  1.0000  -1.2830   0.0000   0.0000   0.0000   0.3462
   5.000   0.9925   0.01443   0.00660  -0.0956  0.5194  1.0000  -1.4279   0.0000   0.0000   0.0000   0.3394
   5.500   1.0427   0.01495   0.00712  -0.0946  0.5016  1.0000  -1.6049   0.0000   0.0000   0.0000   0.3333
   6.000   1.0917   0.01549   0.00769  -0.0933  0.4822  1.0000  -1.8048   0.0000   0.0000   0.0000   0.3274
   6.500   1.1383   0.01602   0.00826  -0.0917  0.4588  1.0000  -2.0254   0.0000   0.0000   0.0000   0.3219
   7.000   1.1823   0.01658   0.00887  -0.0896  0.4310  1.0000  -2.2629   0.0000   0.0000   0.0000   0.3164
   7.500   1.2240   0.01721   0.00954  -0.0872  0.4009  1.0000  -2.5105   0.0000   0.0000   0.0000   0.3112
   8.000   1.2628   0.01792   0.01032  -0.0843  0.3649  1.0000  -2.7740   0.0000   0.0000   0.0000   0.3060
   8.500   1.2958   0.01891   0.01124  -0.0806  0.3214  1.0000  -3.0288   0.0000   0.0000   0.0000   0.3007
   9.000   1.3206   0.02030   0.01249  -0.0758  0.2682  1.0000  -3.2809   0.0000   0.0000   0.0000   0.2952
   9.500   1.3334   0.02223   0.01418  -0.0695  0.2114  1.0000  -3.5017   0.0000   0.0000   0.0000   0.2892
  10.000   1.3416   0.02480   0.01650  -0.0635  0.1579  1.0000  -3.7070   0.0000   0.0000   0.0000   0.2836
  10.500   1.3473   0.02784   0.01935  -0.0580  0.1180  1.0000  -3.9022   0.0000   0.0000   0.0000   0.2785
  11.000   1.3525   0.03122   0.02267  -0.0533  0.0930  1.0000  -4.0992   0.0000   0.0000   0.0000   0.2740
  11.500   1.3572   0.03497   0.02646  -0.0494  0.0772  1.0000  -4.3040   0.0000   0.0000   0.0000   0.2701
  12.000   1.3608   0.03915   0.03076  -0.0462  0.0667  1.0000  -4.5020   0.0000   0.0000   0.0000   0.2668
  12.500   1.3617   0.04390   0.03563  -0.0437  0.0593  1.0000  -4.6878   0.0000   0.0000   0.0000   0.2640
  13.000   1.3617   0.04906   0.04094  -0.0418  0.0536  1.0000  -4.8651   0.0000   0.0000   0.0000   0.2616
  13.500   1.3606   0.05462   0.04668  -0.0405  0.0493  1.0000  -5.0333   0.0000   0.0000   0.0000   0.2597
  14.000   1.3586   0.06053   0.05271  -0.0397  0.0456  1.0000  -5.1991   0.0000   0.0000   0.0000   0.2581
  14.500   1.3596   0.06634   0.05872  -0.0392  0.0421  1.0000  -5.3726   0.0000   0.0000   0.0000   0.2568
  15.000   1.3599   0.07232   0.06486  -0.0389  0.0396  1.0000  -5.5591   0.0000   0.0000   0.0000   0.2555


xflr5 v6.61

 Calculated polar for: NACA 4412

 1 1 Reynolds number fixed          Mach number fixed         

 xtrf =   1.000 (top)        1.000 (bottom)
 Mach =   0.000     Re =     0.060 e 6     Ncrit =   6.000

  alpha     CL        CD       CDp       Cm    Top Xtr Bot Xtr   Cpmin    Chinge    XCp    
 ------- -------- --------- --------- -------- ------- ------- -------- --------- ---------
 -15.000  -0.4150   0.17862   0.17119  -0.0206  1.0000  0.0838  -1.4361   0.0000   0.0000   0.0000   0.1816
 -14.500  -0.4037   0.17258   0.16520  -0.0236  1.0000  0.0865  -1.4476   0.0000   0.0000   0.0000   0.1734
 -14.000  -0.3890   0.16634   0.15898  -0.0256  1.0000  0.0909  -1.4378   0.0000   0.0000   0.0000   0.1662
 -13.500  -0.3845   0.16101   0.15373  -0.0290  1.0000  0.0933  -1.5023   0.0000   0.0000   0.0000   0.1572
 -13.000  -0.3661   0.15399   0.14672  -0.0299  1.0000  0.0977  -1.4547   0.0000   0.0000   0.0000   0.1509
 -12.500  -0.3628   0.14843   0.14124  -0.0329  1.0000  0.1015  -1.5057   0.0000   0.0000   0.0000   0.1428
 -12.000  -0.3538   0.14266   0.13552  -0.0345  1.0000  0.1084  -1.5003   0.0000   0.0000   0.0000   0.1362
 -11.500  -0.3397   0.13590   0.12881  -0.0352  1.0000  0.1126  -1.4650   0.0000   0.0000   0.0000   0.1303
 -11.000  -0.3456   0.13099   0.12401  -0.0381  1.0000  0.1172  -1.5379   0.0000   0.0000   0.0000   0.1247
 -10.500  -0.3291   0.12402   0.11709  -0.0377  1.0000  0.1209  -1.4844   0.0000   0.0000   0.0000   0.1206
 -10.000  -0.3387   0.11909   0.11231  -0.0397  1.0000  0.1257  -1.5680   0.0000   0.0000   0.0000   0.1193
  -9.500  -0.3283   0.11309   0.10641  -0.0384  1.0000  0.1324  -1.5334   0.0000   0.0000   0.0000   0.1199
  -9.000  -0.3355   0.10785   0.10134  -0.0380  1.0000  0.1370  -1.5731   0.0000   0.0000   0.0000   0.1247
  -8.000  -0.4135   0.09169   0.08558  -0.0386  1.0000  0.0852  -2.1210   0.0000   0.0000   0.0000   0.1476
  -7.000  -0.4609   0.07598   0.07008  -0.0403  1.0000  0.0769  -2.4328   0.0000   0.0000   0.0000   0.1554
  -6.500  -0.4697   0.06641   0.06037  -0.0433  1.0000  0.0756  -2.5811   0.0000   0.0000   0.0000   0.1509
  -6.000  -0.4530   0.05211   0.04518  -0.0529  0.9967  0.0775  -2.8161   0.0000   0.0000   0.0000   0.1260
  -5.500  -0.3864   0.04311   0.03520  -0.0624  0.9845  0.0819  -2.7478   0.0000   0.0000   0.0000   0.0805
  -5.000  -0.3122   0.03673   0.02763  -0.0700  0.9726  0.0912  -2.6033   0.0000   0.0000   0.0000   0.0167
  -4.500  -0.2394   0.03315   0.02334  -0.0751  0.9583  0.1031  -2.3612   0.0000   0.0000   0.0000  -0.0744
  -4.000  -0.1626   0.03057   0.02023  -0.0800  0.9445  0.1194  -2.1132   0.0000   0.0000   0.0000  -0.2562
  -3.500  -0.0914   0.02882   0.01821  -0.0835  0.9281  0.1410  -1.8551   0.0000   0.0000   0.0000  -0.6854
  -3.000  -0.0148   0.02735   0.01660  -0.0877  0.9137  0.1734  -1.5976   0.0000   0.0000   0.0000  -5.8030
  -2.500   0.0507   0.02631   0.01561  -0.0897  0.8952  0.2158  -1.3640   0.0000   0.0000   0.0000   2.0465
  -2.000   0.1242   0.02524   0.01472  -0.0930  0.8798  0.2822  -1.1342   0.0000   0.0000   0.0000   1.0073
  -1.500   0.1899   0.02413   0.01401  -0.0948  0.8619  0.3846  -0.9333   0.0000   0.0000   0.0000   0.7536
  -1.000   0.2427   0.02233   0.01373  -0.0927  0.8446  0.7148  -0.7665   0.0000   0.0000   0.0000   0.6339
  -0.500   0.3284   0.02171   0.01293  -0.0968  0.8284  1.0000  -0.6554   0.0000   0.0000   0.0000   0.5452
   0.000   0.3862   0.02187   0.01266  -0.0970  0.8067  1.0000  -0.6966   0.0000   0.0000   0.0000   0.5005
   0.500   0.4509   0.02183   0.01228  -0.0980  0.7884  1.0000  -0.7445   0.0000   0.0000   0.0000   0.4660
   1.000   0.5063   0.02209   0.01228  -0.0977  0.7669  1.0000  -0.7885   0.0000   0.0000   0.0000   0.4407
   1.500   0.5663   0.02221   0.01219  -0.0978  0.7478  1.0000  -0.8382   0.0000   0.0000   0.0000   0.4200
   2.000   0.6234   0.02247   0.01229  -0.0976  0.7282  1.0000  -0.8888   0.0000   0.0000   0.0000   0.4033
   2.500   0.6768   0.02292   0.01265  -0.0969  0.7076  1.0000  -0.9395   0.0000   0.0000   0.0000   0.3894
   3.000   0.7346   0.02324   0.01287  -0.0968  0.6894  1.0000  -0.9978   0.0000   0.0000   0.0000   0.3774
   3.500   0.7863   0.02386   0.01347  -0.0959  0.6699  1.0000  -1.0560   0.0000   0.0000   0.0000   0.3670
   4.000   0.8372   0.02456   0.01418  -0.0949  0.6504  1.0000  -1.1203   0.0000   0.0000   0.0000   0.3579
   4.500   0.8911   0.02514   0.01480  -0.0942  0.6322  1.0000  -1.2012   0.0000   0.0000   0.0000   0.3497
   5.000   0.9442   0.02580   0.01549  -0.0934  0.6141  1.0000  -1.3215   0.0000   0.0000   0.0000   0.3424
   5.500   0.9888   0.02685   0.01671  -0.0916  0.5935  1.0000  -1.4662   0.0000   0.0000   0.0000   0.3355
   6.000   1.0400   0.02756   0.01753  -0.0905  0.5742  1.0000  -1.6486   0.0000   0.0000   0.0000   0.3293
   6.500   1.0875   0.02843   0.01858  -0.0888  0.5535  1.0000  -1.8488   0.0000   0.0000   0.0000   0.3234
   7.000   1.1341   0.02921   0.01955  -0.0869  0.5311  1.0000  -2.0688   0.0000   0.0000   0.0000   0.3177
   7.500   1.1770   0.03001   0.02057  -0.0844  0.5060  1.0000  -2.3034   0.0000   0.0000   0.0000   0.3121
   8.000   1.2191   0.03053   0.02128  -0.0815  0.4775  1.0000  -2.5527   0.0000   0.0000   0.0000   0.3065
   8.500   1.2576   0.03088   0.02177  -0.0779  0.4450  1.0000  -2.8166   0.0000   0.0000   0.0000   0.3008
   9.000   1.2825   0.03169   0.02278  -0.0726  0.4091  1.0000  -3.0454   0.0000   0.0000   0.0000   0.2947
   9.500   1.2985   0.03275   0.02404  -0.0664  0.3699  1.0000  -3.2642   0.0000   0.0000   0.0000   0.2885
  10.000   1.3021   0.03441   0.02578  -0.0591  0.3275  1.0000  -3.4473   0.0000   0.0000   0.0000   0.2818
  10.500   1.2989   0.03715   0.02844  -0.0523  0.2797  1.0000  -3.6031   0.0000   0.0000   0.0000   0.2759
  11.000   1.2880   0.04133   0.03246  -0.0466  0.2310  1.0000  -3.7229   0.0000   0.0000   0.0000   0.2709
  11.500   1.2733   0.04684   0.03775  -0.0424  0.1893  1.0000  -3.8169   0.0000   0.0000   0.0000   0.2670
  12.000   1.2600   0.05303   0.04378  -0.0395  0.1579  1.0000  -3.9047   0.0000   0.0000   0.0000   0.2642
  12.500   1.2520   0.05913   0.04973  -0.0373  0.1351  1.0000  -4.0194   0.0000   0.0000   0.0000   0.2617
  13.000   1.2515   0.06475   0.05532  -0.0355  0.1169  1.0000  -4.1580   0.0000   0.0000   0.0000   0.2594
  13.500   1.2581   0.06981   0.06047  -0.0338  0.1024  1.0000  -4.3204   0.0000   0.0000   0.0000   0.2569
  14.000   1.2713   0.07430   0.06507  -0.0319  0.0910  1.0000  -4.5081   0.0000   0.0000   0.0000   0.2543
  14.500   1.2822   0.07936   0.07035  -0.0306  0.0821  1.0000  -4.6785   0.0000   0.0000   0.0000   0.2522
  15.000   1.2934   0.08470   0.07595  -0.0295  0.0755  1.0000  -4.8401   0.0000   0.0000   0.0000   0.2502


xflr5 v6.61

 Calculated polar for: NACA 4412

 1 1 Reynolds number fixed          Mach number fixed         

 xtrf =   1.000 (top)        1.000 (bottom)
 Mach =   0.000     Re =     0.300 e 6     Ncrit =   6.000

  alpha     CL        CD       CDp       Cm    Top Xtr Bot Xtr   Cpmin    Chinge    XCp    
 ------- -------- --------- --------- -------- ------- ------- -------- --------- ---------
 -15.000  -0.4156   0.16939   0.16601  -0.0212  1.0000  0.0247  -1.6739   0.0000   0.0000   0.0000   0.1795
 -14.500  -0.4092   0.16110   0.15774  -0.0259  1.0000  0.0262  -1.8456   0.0000   0.0000   0.0000   0.1675
 -13.000  -0.2616   0.12777   0.12477  -0.0419  1.0000  0.0260  -1.6463   0.0000   0.0000   0.0000   0.0739
 -12.500  -0.2587   0.12276   0.11979  -0.0416  1.0000  0.0245  -1.6479   0.0000   0.0000   0.0000   0.0735
 -12.000  -0.2675   0.11546   0.11253  -0.0422  1.0000  0.0235  -1.8177   0.0000   0.0000   0.0000   0.0771
 -11.500  -0.3931   0.10844   0.10520  -0.0442  1.0000  0.0223  -2.8089   0.0000   0.0000   0.0000   0.1204
 -11.000  -0.6614   0.05589   0.05272  -0.0665  1.0000  0.0220  -6.1329   0.0000   0.0000   0.0000   0.1355
 -10.500  -0.7054   0.03407   0.02961  -0.0879  0.9888  0.0221  -6.8200   0.0000   0.0000   0.0000   0.1126
 -10.000  -0.6576   0.02949   0.02461  -0.0923  0.9818  0.0231  -6.4555   0.0000   0.0000   0.0000   0.0971
  -9.500  -0.6031   0.02637   0.02110  -0.0954  0.9750  0.0243  -6.0291   0.0000   0.0000   0.0000   0.0793
  -9.000  -0.5468   0.02317   0.01728  -0.0982  0.9682  0.0260  -5.6408   0.0000   0.0000   0.0000   0.0580
  -8.500  -0.4814   0.02116   0.01507  -0.1018  0.9641  0.0280  -5.1435   0.0000   0.0000   0.0000   0.0259
  -8.000  -0.4221   0.01938   0.01294  -0.1034  0.9560  0.0304  -4.7062   0.0000   0.0000   0.0000  -0.0081
  -7.500  -0.3634   0.01779   0.01121  -0.1047  0.9471  0.0326  -4.2692   0.0000   0.0000   0.0000  -0.0520
  -7.000  -0.3044   0.01650   0.00968  -0.1057  0.9366  0.0359  -3.8845   0.0000   0.0000   0.0000  -0.1119
  -6.500  -0.2467   0.01540   0.00849  -0.1062  0.9248  0.0396  -3.4988   0.0000   0.0000   0.0000  -0.1968
  -6.000  -0.1924   0.01442   0.00740  -0.1060  0.9109  0.0437  -3.1408   0.0000   0.0000   0.0000  -0.3194
  -5.500  -0.1373   0.01361   0.00651  -0.1058  0.8969  0.0494  -2.7878   0.0000   0.0000   0.0000  -0.5438
  -5.000  -0.0819   0.01288   0.00569  -0.1057  0.8822  0.0563  -2.4739   0.0000   0.0000   0.0000  -1.0740
  -4.500  -0.0262   0.01225   0.00498  -0.1055  0.8668  0.0655  -2.1711   0.0000   0.0000   0.0000  -3.8660
  -4.000   0.0287   0.01173   0.00442  -0.1052  0.8494  0.0778  -1.8794   0.0000   0.0000   0.0000   3.9807
  -3.500   0.0839   0.01127   0.00393  -0.1048  0.8304  0.0941  -1.6221   0.0000   0.0000   0.0000   1.5209
  -3.000   0.1390   0.01089   0.00353  -0.1045  0.8104  0.1164  -1.3740   0.0000   0.0000   0.0000   1.0123
  -2.500   0.1940   0.01057   0.00322  -0.1042  0.7886  0.1462  -1.1542   0.0000   0.0000   0.0000   0.7929
  -2.000   0.2487   0.01031   0.00298  -0.1039  0.7653  0.1849  -0.9510   0.0000   0.0000   0.0000   0.6707
[...]
 -14.500  -0.4377   0.17330   0.16611  -0.0136  1.0000  0.0947  -1.5484   0.0000   0.0000   0.0000   0.2026
 -14.000  -0.4350   0.16961   0.16248  -0.0179  1.0000  0.1008  -1.6131   0.0000   0.0000   0.0000   0.1933
 -13.500  -0.4129   0.16096   0.15384  -0.0189  1.0000  0.1054  -1.5391   0.0000   0.0000   0.0000   0.1886
 -13.000  -0.4081   0.15613   0.14907  -0.0223  1.0000  0.1121  -1.5679   0.0000   0.0000   0.0000   0.1805
 -12.500  -0.3905   0.14846   0.14143  -0.0235  1.0000  0.1175  -1.5221   0.0000   0.0000   0.0000   0.1751
 -12.000  -0.3962   0.14463   0.13769  -0.0276  1.0000  0.1247  -1.6022   0.0000   0.0000   0.0000   0.1666
 -11.500  -0.3707   0.13596   0.12903  -0.0274  1.0000  0.1313  -1.5034   0.0000   0.0000   0.0000   0.1622
 -11.000  -0.3741   0.13065   0.12383  -0.0307  1.0000  0.1385  -1.5548   0.0000   0.0000   0.0000   0.1551
 -10.500  -0.3658   0.12479   0.11802  -0.0319  1.0000  0.1485  -1.5300   0.0000   0.0000   0.0000   0.1502
 -10.000  -0.3495   0.11768   0.11096  -0.0319  1.0000  0.1562  -1.4735   0.0000   0.0000   0.0000   0.1463
  -9.500  -0.3476   0.11187   0.10525  -0.0331  1.0000  0.1656  -1.4733   0.0000   0.0000   0.0000   0.1433
  -9.000  -0.3639   0.10737   0.10095  -0.0349  1.0000  0.1750  -1.5372   0.0000   0.0000   0.0000   0.1439
  -8.500  -0.3613   0.10201   0.09571  -0.0334  1.0000  0.1857  -1.5065   0.0000   0.0000   0.0000   0.1481
  -8.000  -0.3585   0.09660   0.09043  -0.0306  1.0000  0.1959  -1.4659   0.0000   0.0000   0.0000   0.1556
  -7.500  -0.3759   0.09246   0.08652  -0.0267  1.0000  0.2046  -1.4743   0.0000   0.0000   0.0000   0.1710
  -6.500  -0.4591   0.08604   0.08056  -0.0207  1.0000  0.2246  -1.6291   0.0000   0.0000   0.0000   0.1997
  -6.000  -0.4741   0.06779   0.06195  -0.0331  1.0000  0.1288  -2.0342   0.0000   0.0000   0.0000   0.1749
  -5.500  -0.4672   0.05113   0.04389  -0.0412  1.0000  0.1012  -2.4197   0.0000   0.0000   0.0000   0.1561
  -5.000  -0.4371   0.04464   0.03663  -0.0414  1.0000  0.1011  -2.3690   0.0000   0.0000   0.0000   0.1493
  -4.500  -0.3935   0.03916   0.03029  -0.0425  0.9990  0.1008  -2.2801   0.0000   0.0000   0.0000   0.1360
  -4.000  -0.3177   0.03515   0.02570  -0.0485  0.9881  0.1061  -2.0771   0.0000   0.0000   0.0000   0.0906
  -3.500  -0.2382   0.03187   0.02147  -0.0539  0.9769  0.1120  -1.9300   0.0000   0.0000   0.0000   0.0156
  -3.000  -0.1644   0.02986   0.01911  -0.0581  0.9638  0.1237  -1.7525   0.0000   0.0000   0.0000  -0.1136
  -2.500  -0.0922   0.02832   0.01757  -0.0618  0.9501  0.1444  -1.5905   0.0000   0.0000   0.0000  -0.4358
  -2.000  -0.0200   0.02701   0.01651  -0.0653  0.9359  0.2038  -1.4325   0.0000   0.0000   0.0000  -3.0664
  -1.500   0.0495   0.02514   0.01615  -0.0689  0.9221  0.4758  -1.2626   0.0000   0.0000   0.0000   1.6578
  -1.000   0.1277   0.02410   0.01613  -0.0710  0.9074  1.0000  -1.0449   0.0000   0.0000   0.0000   0.8104
  -0.500   0.1956   0.02460   0.01603  -0.0738  0.8864  1.0000  -0.8437   0.0000   0.0000   0.0000   0.6286
   0.000   0.2743   0.02464   0.01562  -0.0777  0.8624  1.0000  -0.6407   0.0000   0.0000   0.0000   0.5326
   0.500   0.3524   0.02454   0.01518  -0.0810  0.8412  1.0000  -0.6970   0.0000   0.0000   0.0000   0.4784
   1.000   0.4185   0.02456   0.01498  -0.0822  0.8202  1.0000  -0.7541   0.0000   0.0000   0.0000   0.4443
   1.500   0.4781   0.02463   0.01489  -0.0822  0.7974  1.0000  -0.8091   0.0000   0.0000   0.0000   0.4191
   2.000   0.5387   0.02457   0.01472  -0.0820  0.7744  1.0000  -0.8665   0.0000   0.0000   0.0000   0.3989
   2.500   0.5992   0.02440   0.01448  -0.0815  0.7506  1.0000  -0.9264   0.0000   0.0000   0.0000   0.3822
   3.000   0.6582   0.02420   0.01423  -0.0807  0.7248  1.0000  -0.9893   0.0000   0.0000   0.0000   0.3682
   3.500   0.7170   0.02396   0.01397  -0.0796  0.6972  1.0000  -1.0608   0.0000   0.0000   0.0000   0.3562
   4.000   0.7773   0.02367   0.01366  -0.0787  0.6686  1.0000  -1.1772   0.0000   0.0000   0.0000   0.3459
   4.500   0.8279   0.02390   0.01389  -0.0767  0.6345  1.0000  -1.2922   0.0000   0.0000   0.0000   0.3368
   5.000   0.8807   0.02419   0.01416  -0.0751  0.6015  1.0000  -1.4143   0.0000   0.0000   0.0000   0.3290
   5.500   0.9337   0.02463   0.01459  -0.0737  0.5702  1.0000  -1.5450   0.0000   0.0000   0.0000   0.3221
   6.000   0.9821   0.02545   0.01542  -0.0720  0.5396  1.0000  -1.6728   0.0000   0.0000   0.0000   0.3159
   6.500   1.0301   0.02632   0.01634  -0.0702  0.5106  1.0000  -1.8081   0.0000   0.0000   0.0000   0.3102
   7.000   1.0789   0.02713   0.01716  -0.0685  0.4822  1.0000  -1.9481   0.0000   0.0000   0.0000   0.3049
   7.500   1.1194   0.02809   0.01823  -0.0657  0.4502  1.0000  -2.1066   0.0000   0.0000   0.0000   0.2994
   8.000   1.1638   0.02891   0.01904  -0.0633  0.4196  1.0000  -2.4272   0.0000   0.0000   0.0000   0.2944
   8.500   1.2001   0.03022   0.02055  -0.0602  0.3891  1.0000  -2.7285   0.0000   0.0000   0.0000   0.2895
   9.000   1.2403   0.03148   0.02185  -0.0575  0.3582  1.0000  -3.0720   0.0000   0.0000   0.0000   0.2850
   9.500   1.2699   0.03322   0.02378  -0.0537  0.3247  1.0000  -3.3855   0.0000   0.0000   0.0000   0.2802
  10.000   1.2967   0.03519   0.02589  -0.0495  0.2907  1.0000  -3.6931   0.0000   0.0000   0.0000   0.2754
  10.500   1.3215   0.03729   0.02806  -0.0453  0.2596  1.0000  -4.0002   0.0000   0.0000   0.0000   0.2707
  11.000   1.3388   0.03970   0.03067  -0.0405  0.2335  1.0000  -4.2886   0.0000   0.0000   0.0000   0.2659
  11.500   1.3480   0.04194   0.03301  -0.0350  0.2114  1.0000  -4.5533   0.0000   0.0000   0.0000   0.2607
  12.000   1.3461   0.04478   0.03605  -0.0293  0.1913  1.0000  -4.7674   0.0000   0.0000   0.0000   0.2557
  12.500   1.3420   0.04836   0.03984  -0.0248  0.1730  1.0000  -4.9655   0.0000   0.0000   0.0000   0.2515
  13.000   1.3351   0.05239   0.04391  -0.0212  0.1550  1.0000  -5.1534   0.0000   0.0000   0.0000   0.2480
  13.500   1.3163   0.05833   0.05017  -0.0190  0.1386  1.0000  -5.2560   0.0000   0.0000   0.0000   0.2455
  14.000   1.3031   0.06445   0.05635  -0.0177  0.1226  1.0000  -5.3749   0.0000   0.0000   0.0000   0.2436
  14.500   1.2757   0.07320   0.06546  -0.0182  0.1078  1.0000  -5.3743   0.0000   0.0000   0.0000   0.2433
  15.000   1.2551   0.08154   0.07375  -0.0190  0.0918  1.0000  -5.3989   0.0000   0.0000   0.0000   0.2432


xflr5 v6.61

 Calculated polar for: CLARK Y AIRFOIL

 1 1 Reynolds number fixed          Mach number fixed         

 xtrf =   1.000 (top)        1.000 (bottom)
 Mach =   0.000     Re =     0.030 e 6     Ncrit =   7.000

  alpha     CL        CD       CDp       Cm    Top Xtr Bot Xtr   Cpmin    Chinge    XCp    
 ------- -------- --------- --------- -------- ------- ------- -------- --------- ---------
 -15.000  -0.4576   0.18627   0.17617  -0.0080  1.0000  0.1821  -1.4560   0.0000   0.0000   0.0000   0.2163
 -14.500  -0.4440   0.18039   0.17034  -0.0104  1.0000  0.1910  -1.4456   0.0000   0.0000   0.0000   0.2107
 -14.000  -0.4333   0.17515   0.16516  -0.0127  1.0000  0.2016  -1.4386   0.0000   0.0000   0.0000   0.2053
 -13.500  -0.4220   0.16959   0.15965  -0.0146  1.0000  0.2137  -1.4230   0.0000   0.0000   0.0000   0.2003
 -13.000  -0.4122   0.16414   0.15428  -0.0164  1.0000  0.2257  -1.4194   0.0000   0.0000   0.0000   0.1957
 -12.500  -0.3950   0.15693   0.14710  -0.0175  1.0000  0.2403  -1.3849   0.0000   0.0000   0.0000   0.1913
 -12.000  -0.3807   0.15044   0.14065  -0.0184  1.0000  0.2559  -1.3536   0.0000   0.0000   0.0000   0.1873
 -11.500  -0.3702   0.14458   0.13486  -0.0194  1.0000  0.2718  -1.3295   0.0000   0.0000   0.0000   0.1838
 -11.000  -0.3707   0.14042   0.13081  -0.0202  1.0000  0.2887  -1.3400   0.0000   0.0000   0.0000   0.1824
 -10.500  -0.3492   0.13250   0.12292  -0.0202  1.0000  0.3078  -1.2865   0.0000   0.0000   0.0000   0.1789
 -10.000  -0.3487   0.12793   0.11848  -0.0203  1.0000  0.3272  -1.2819   0.0000   0.0000   0.0000   0.1795
  -9.500  -0.3324   0.12112   0.11173  -0.0196  1.0000  0.3509  -1.2386   0.0000   0.0000   0.0000   0.1787
  -9.000  -0.3221   0.11520   0.10591  -0.0186  1.0000  0.3756  -1.2076   0.0000   0.0000   0.0000   0.1803
  -8.500  -0.3140   0.10954   0.10038  -0.0172  1.0000  0.3995  -1.1789   0.0000   0.0000   0.0000   0.1838
  -8.000  -0.3121   0.10481   0.09581  -0.0145  1.0000  0.4305  -1.1622   0.0000   0.0000   0.0000   0.1926
  -7.500  -0.2997   0.09898   0.09010  -0.0117  1.0000  0.4640  -1.1206   0.0000   0.0000   0.0000   0.2005
  -6.500  -0.4281   0.08635   0.07819  -0.0251  1.0000  0.2223  -1.6434   0.0000   0.0000   0.0000   0.1855
  -5.500  -0.4443   0.06942   0.06104  -0.0314  1.0000  0.1815  -1.8475   0.0000   0.0000   0.0000   0.1742
  -5.000  -0.4302   0.06065   0.05168  -0.0354  1.0000  0.1721  -1.9148   0.0000   0.0000   0.0000   0.1628
  -4.500  -0.4020   0.05377   0.04419  -0.0372  1.0000  0.1711  -1.8927   0.0000   0.0000   0.0000   0.1524
  -4.000  -0.3629   0.04756   0.03705  -0.0394  1.0000  0.1735  -1.8628   0.0000   0.0000   0.0000   0.1362
  -3.500  -0.3191   0.04316   0.03204  -0.0400  1.0000  0.1791  -1.7810   0.0000   0.0000   0.0000   0.1191
  -2.500  -0.2214   0.03730   0.02472  -0.0409  1.0000  0.2115  -1.6094   0.0000   0.0000   0.0000   0.0591
  -2.000  -0.1722   0.03556   0.02268  -0.0408  1.0000  0.2492  -1.5186   0.0000   0.0000   0.0000   0.0062
  -1.500  -0.1240   0.03391   0.02133  -0.0406  1.0000  0.3378  -1.4190   0.0000   0.0000   0.0000  -0.0848
  -1.000  -0.0885   0.03003   0.02037  -0.0344  1.0000  0.7522  -1.3452   0.0000   0.0000   0.0000  -0.1471
  -0.500  -0.0467   0.03046   0.01959  -0.0349  1.0000  1.0000  -1.2276   0.0000   0.0000   0.0000  -0.5093
   0.000  -0.0074   0.03181   0.02015  -0.0349  1.0000  1.0000  -1.0847   0.0000   0.0000   0.0000  -4.4892
   0.500   0.0541   0.03391   0.02157  -0.0394  0.9890  1.0000  -0.9015   0.0000   0.0000   0.0000   0.9788
   1.000   0.1485   0.03673   0.02375  -0.0495  0.9563  1.0000  -0.6815   0.0000   0.0000   0.0000   0.5813
   1.500   0.2345   0.03912   0.02573  -0.0574  0.9199  1.0000  -0.6105   0.0000   0.0000   0.0000   0.4918
   2.000   0.3111   0.04120   0.02755  -0.0631  0.8833  1.0000  -0.6660   0.0000   0.0000   0.0000   0.4490
   2.500   0.3803   0.04313   0.02933  -0.0669  0.8470  1.0000  -0.7191   0.0000   0.0000   0.0000   0.4219
   3.000   0.4442   0.04500   0.03112  -0.0696  0.8107  1.0000  -0.7708   0.0000   0.0000   0.0000   0.4021
   3.500   0.5035   0.04686   0.03297  -0.0712  0.7750  1.0000  -0.8240   0.0000   0.0000   0.0000   0.3864
   4.000   0.5626   0.04871   0.03484  -0.0724  0.7413  1.0000  -0.8847   0.0000   0.0000   0.0000   0.3734
   4.500   0.6105   0.05090   0.03710  -0.0722  0.7087  1.0000  -0.9525   0.0000   0.0000   0.0000   0.3626
   5.000   0.6588   0.05318   0.03949  -0.0721  0.6795  1.0000  -1.0423   0.0000   0.0000   0.0000   0.3532
   5.500   0.6890   0.05644   0.04284  -0.0706  0.6510  1.0000  -1.1115   0.0000   0.0000   0.0000   0.3458
   6.000   0.7214   0.05982   0.04636  -0.0695  0.6254  1.0000  -1.1862   0.0000   0.0000   0.0000   0.3391
   6.500   0.7509   0.06352   0.05023  -0.0683  0.6012  1.0000  -1.2583   0.0000   0.0000   0.0000   0.3332
   7.000   0.7791   0.06741   0.05430  -0.0671  0.5776  1.0000  -1.3317   0.0000   0.0000   0.0000   0.3278
   7.500   0.8055   0.07147   0.05857  -0.0657  0.5535  1.0000  -1.4017   0.0000   0.0000   0.0000   0.3227
   8.000   0.8270   0.07588   0.06320  -0.0641  0.5283  1.0000  -1.4658   0.0000   0.0000   0.0000   0.3181
   8.500   0.8439   0.08070   0.06826  -0.0624  0.5019  1.0000  -1.5210   0.0000   0.0000   0.0000   0.3140
   9.000   0.8639   0.08523   0.07303  -0.0605  0.4734  1.0000  -1.5804   0.0000   0.0000   0.0000   0.3095
   9.500   0.8943   0.08860   0.07670  -0.0580  0.4426  1.0000  -1.6603   0.0000   0.0000   0.0000   0.3037
  10.000   0.8992   0.09453   0.08284  -0.0563  0.4117  1.0000  -1.7269   0.0000   0.0000   0.0000   0.3008
  10.500   0.9245   0.09854   0.08714  -0.0538  0.3814  1.0000  -1.9140   0.0000   0.0000   0.0000   0.2958
  11.000   0.9201   0.10655   0.09529  -0.0536  0.3560  1.0000  -1.9770   0.0000   0.0000   0.0000   0.2951
  11.500   0.9182   0.11485   0.10373  -0.0539  0.3344  1.0000  -2.0407   0.0000   0.0000   0.0000   0.2950
  12.000   0.9043   0.12495   0.11391  -0.0559  0.3178  1.0000  -2.0360   0.0000   0.0000   0.0000   0.2975
  12.500   0.8985   0.13464   0.12370  -0.0582  0.3057  1.0000  -2.0555   0.0000   0.0000   0.0000   0.2999
  13.000   0.9007   0.14345   0.13265  -0.0603  0.2946  1.0000  -2.1081   0.0000   0.0000   0.0000   0.3015
  13.500   0.8879   0.15418   0.14345  -0.0648  0.2922  1.0000  -2.0645   0.0000   0.0000   0.0000   0.3069
  14.000   0.8845   0.16342   0.15278  -0.0686  0.2900  1.0000  -2.0637   0.0000   0.0000   0.0000   0.3109


xflr5 v6.61

 Calculated polar for: CLARK Y AIRFOIL

 1 1 Reynolds number fixed          Mach number fixed         

 xtrf =   1.000 (top)        1.000 (bottom)
 Mach =   0.000     Re =     0.080 e 6     Ncrit =   7.000

  alpha     CL        CD       CDp       Cm    Top Xtr Bot Xtr   Cpmin    Chinge    XCp    
 ------- -------- --------- --------- -------- ------- ------- -------- --------- ---------
 -15.000  -0.4628   0.17980   0.17356  -0.0136  1.0000  0.0691  -1.7122   0.0000   0.0000   0.0000   0.2042
 -14.500  -0.4365   0.17126   0.16501  -0.0139  1.0000  0.0739  -1.5827   0.0000   0.0000   0.0000   0.2018
 -14.000  -0.4364   0.16754   0.16135  -0.0191  1.0000  0.0785  -1.6933   0.0000   0.0000   0.0000   0.1906
 -13.500  -0.4151   0.15868   0.15250  -0.0202  1.0000  0.0810  -1.6213   0.0000   0.0000   0.0000   0.1859
 -13.000  -0.4011   0.15249   0.14633  -0.0222  1.0000  0.0873  -1.5827   0.0000   0.0000   0.0000   0.1795
 -12.500  -0.4132   0.14848   0.14245  -0.0282  1.0000  0.0902  -1.7426   0.0000   0.0000   0.0000   0.1676
 -12.000  -0.3795   0.13933   0.13326  -0.0266  1.0000  0.0956  -1.5719   0.0000   0.0000   0.0000   0.1654
 -11.500  -0.3951   0.13534   0.12939  -0.0328  1.0000  0.1012  -1.7336   0.0000   0.0000   0.0000   0.1539
 -11.000  -0.3636   0.12653   0.12056  -0.0309  1.0000  0.1063  -1.5687   0.0000   0.0000   0.0000   0.1515
 -10.500  -0.3782   0.12176   0.11592  -0.0363  1.0000  0.1128  -1.6973   0.0000   0.0000   0.0000   0.1419
 -10.000  -0.3513   0.11409   0.10825  -0.0344  1.0000  0.1192  -1.5586   0.0000   0.0000   0.0000   0.1398
  -9.500  -0.3870   0.10987   0.10427  -0.0409  1.0000  0.1251  -1.7750   0.0000   0.0000   0.0000   0.1338
  -9.000  -0.3487   0.10230   0.09667  -0.0364  1.0000  0.1324  -1.5606   0.0000   0.0000   0.0000   0.1347
  -8.500  -0.4074   0.09913   0.09386  -0.0389  1.0000  0.1372  -1.7987   0.0000   0.0000   0.0000   0.1461
  -8.000  -0.3755   0.09279   0.08751  -0.0338  1.0000  0.1467  -1.6120   0.0000   0.0000   0.0000   0.1513
  -7.500  -0.4587   0.09018   0.08525  -0.0334  1.0000  0.1495  -1.8770   0.0000   0.0000   0.0000   0.1708
  -7.000  -0.4371   0.08521   0.08035  -0.0248  1.0000  0.1546  -1.6986   0.0000   0.0000   0.0000   0.1870
  -6.000  -0.4787   0.05474   0.04895  -0.0430  0.9963  0.0882  -2.4674   0.0000   0.0000   0.0000   0.1542
  -5.500  -0.4209   0.04365   0.03685  -0.0516  0.9853  0.0833  -2.4645   0.0000   0.0000   0.0000   0.1207
  -5.000  -0.3562   0.03672   0.02881  -0.0572  0.9741  0.0848  -2.3588   0.0000   0.0000   0.0000   0.0819
  -4.500  -0.2866   0.03197   0.02303  -0.0615  0.9632  0.0864  -2.2121   0.0000   0.0000   0.0000   0.0269
  -4.000  -0.2151   0.02895   0.01928  -0.0653  0.9520  0.0918  -2.0374   0.0000   0.0000   0.0000  -0.0638
  -3.500  -0.1436   0.02685   0.01686  -0.0687  0.9403  0.0987  -1.8533   0.0000   0.0000   0.0000  -0.2415
  -3.000  -0.0738   0.02524   0.01512  -0.0716  0.9279  0.1117  -1.6760   0.0000   0.0000   0.0000  -0.7425
  -2.500  -0.0061   0.02378   0.01385  -0.0741  0.9149  0.1389  -1.5065   0.0000   0.0000   0.0000  -12.0339
  -2.000   0.0608   0.02233   0.01303  -0.0767  0.9016  0.2467  -1.3400   0.0000   0.0000   0.0000   1.5282
  -1.500   0.1216   0.02058   0.01289  -0.0778  0.8883  0.5896  -1.1526   0.0000   0.0000   0.0000   0.8962
  -1.000   0.2322   0.01963   0.01241  -0.0857  0.8792  1.0000  -0.8702   0.0000   0.0000   0.0000   0.6209
  -0.500   0.3032   0.01923   0.01155  -0.0877  0.8578  1.0000  -0.6732   0.0000   0.0000   0.0000   0.5393
   0.000   0.3639   0.01899   0.01099  -0.0878  0.8360  1.0000  -0.7008   0.0000   0.0000   0.0000   0.4902
   0.500   0.4282   0.01875   0.01049  -0.0885  0.8190  1.0000  -0.7575   0.0000   0.0000   0.0000   0.4549
   1.000   0.4806   0.01877   0.01033  -0.0872  0.7973  1.0000  -0.8078   0.0000   0.0000   0.0000   0.4291
   1.500   0.5364   0.01869   0.01009  -0.0862  0.7762  1.0000  -0.8622   0.0000   0.0000   0.0000   0.4079
   2.000   0.5947   0.01849   0.00975  -0.0856  0.7551  1.0000  -0.9203   0.0000   0.0000   0.0000   0.3905
   2.500   0.6494   0.01841   0.00957  -0.0843  0.7309  1.0000  -0.9774   0.0000   0.0000   0.0000   0.3760
   3.000   0.6999   0.01849   0.00959  -0.0825  0.7028  1.0000  -1.0351   0.0000   0.0000   0.0000   0.3634
   3.500   0.7515   0.01856   0.00959  -0.0807  0.6726  1.0000  -1.1110   0.0000   0.0000   0.0000   0.3525
   4.000   0.8031   0.01868   0.00963  -0.0790  0.6401  1.0000  -1.2222   0.0000   0.0000   0.0000   0.3430
   4.500   0.8542   0.01892   0.00977  -0.0773  0.6052  1.0000  -1.3404   0.0000   0.0000   0.0000   0.3346
   5.000   0.9035   0.01937   0.01013  -0.0755  0.5690  1.0000  -1.4627   0.0000   0.0000   0.0000   0.3271
   5.500   0.9512   0.02005   0.01074  -0.0737  0.5341  1.0000  -1.5879   0.0000   0.0000   0.0000   0.3205
   6.000   0.9988   0.02085   0.01148  -0.0720  0.5023  1.0000  -1.7202   0.0000   0.0000   0.0000   0.3145
   6.500   1.0451   0.02170   0.01230  -0.0702  0.4723  1.0000  -1.8559   0.0000   0.0000   0.0000   0.3089
   7.000   1.0883   0.02254   0.01312  -0.0678  0.4405  1.0000  -1.9906   0.0000   0.0000   0.0000   0.3035
   7.500   1.1303   0.02347   0.01408  -0.0654  0.4108  1.0000  -2.1873   0.0000   0.0000   0.0000   0.2984
   8.000   1.1726   0.02454   0.01519  -0.0632  0.3842  1.0000  -2.5033   0.0000   0.0000   0.0000   0.2938
   8.500   1.2127   0.02573   0.01645  -0.0608  0.3571  1.0000  -2.8278   0.0000   0.0000   0.0000   0.2893
   9.000   1.2475   0.02708   0.01798  -0.0576  0.3281  1.0000  -3.1592   0.0000   0.0000   0.0000   0.2847
   9.500   1.2787   0.02852   0.01953  -0.0540  0.2975  1.0000  -3.4877   0.0000   0.0000   0.0000   0.2800
  10.000   1.3009   0.03016   0.02137  -0.0493  0.2647  1.0000  -3.7850   0.0000   0.0000   0.0000   0.2749
  10.500   1.3148   0.03189   0.02317  -0.0436  0.2336  1.0000  -4.0653   0.0000   0.0000   0.0000   0.2694
  11.000   1.3221   0.03404   0.02543  -0.0377  0.2054  1.0000  -4.3247   0.0000   0.0000   0.0000   0.2639
  11.500   1.3287   0.03669   0.02812  -0.0328  0.1818  1.0000  -4.5834   0.0000   0.0000   0.0000   0.2593
  12.000   1.3357   0.03986   0.03138  -0.0288  0.1627  1.0000  -4.8402   0.0000   0.0000   0.0000   0.2553
  12.500   1.3377   0.04361   0.03523  -0.0254  0.1453  1.0000  -5.0731   0.0000   0.0000   0.0000   0.2518
  13.000   1.3326   0.04835   0.04023  -0.0228  0.1279  1.0000  -5.2608   0.0000   0.0000   0.0000   0.2490
  13.500   1.3232   0.05402   0.04606  -0.0212  0.1128  1.0000  -5.4149   0.0000   0.0000   0.0000   0.2469
  14.000   1.3060   0.06129   0.05363  -0.0208  0.0969  1.0000  -5.4998   0.0000   0.0000   0.0000   0.2458
  14.500   1.2812   0.07018   0.06263  -0.0218  0.0825  1.0000  -5.5244   0.0000   0.0000   0.0000   0.2458
  15.000   1.2559   0.08017   0.07285  -0.0238  0.0689  1.0000  -5.5140   0.0000   0.0000   0.0000   0.2467


