       XFOIL         Version 6.96
  
 Calculated polar for: NACA 2.5411                                     
  
 1 1 Reynolds number fixed          Mach number fixed         
  
 xtrf =   1.000 (top)        1.000 (bottom)  
 Mach =   0.000     Re =     0.500 e 6     Ncrit =   6.000
  
   alpha    CL        CD       CDp       CM     Top_Xtr  Bot_Xtr
  ------ -------- --------- --------- -------- -------- --------          
-180.000000         -0.066540           -0.000003           -0.025163           0.000000            -0.066540           0.000000            
-179.000000         0.023710            0.000521            0.008939            0.000000            0.023710            0.000000            
-178.000000         0.119249            0.002091            0.044798            0.000000            0.119249            0.000000            
-177.000000         0.217158            0.004703            0.081288            0.000000            0.217158            0.000000            
-176.000000         0.314273            0.008355            0.117208            0.000000            0.314273            0.000000            
-175.000000         0.409999            0.013041            0.152326            0.000000            0.409999            0.000000            
-174.000000         0.505303            0.018753            0.186997            0.000000            0.505303            0.000000            
-173.000000         0.599575            0.025485            0.220985            0.000000            0.599575            0.000000            
-172.000000         0.686515            0.033227            0.251988            0.000000            0.686515            0.000000            
-171.000000         0.751695            0.041969            0.274814            0.000000            0.751695            0.000000            
-170.000000         0.779626            0.051698            0.284025            0.000000            0.779626            0.000000            
-169.000000         0.769646            0.062404            0.279646            0.000000            0.769646            0.000000            
-168.000000         0.738177            0.074071            0.267803            0.000000            0.738177            0.000000            
-167.000000         0.702804            0.086685            0.254881            0.000000            0.702804            0.000000            
-166.000000         0.672234            0.100229            0.243982            0.000000            0.672234            0.000000            
-165.000000         0.648121            0.114687            0.235661            0.000000            0.648121            0.000000            
-164.000000         0.629332            0.130039            0.229496            0.000000            0.629332            0.000000            
-163.000000         0.614320            0.146267            0.224927            0.000000            0.614320            0.000000            
-162.000000         0.601917            0.163349            0.221539            0.000000            0.601917            0.000000            
-161.000000         0.591467            0.181265            0.219102            0.000000            0.591467            0.000000            
-160.000000         0.582752            0.199992            0.217534            0.000000            0.582752            0.000000            
-159.000000         0.575900            0.219506            0.216870            0.000000            0.575900            0.000000            
-158.000000         0.571305            0.239783            0.217225            0.000000            0.571305            0.000000            
-157.000000         0.569565            0.260798            0.218777            0.000000            0.569565            0.000000            
-156.000000         0.571450            0.282525            0.221742            0.000000            0.571450            0.000000            
-155.000000         0.577871            0.304936            0.226370            0.000000            0.577871            0.000000            
-154.000000         0.588931            0.328005            0.232644            0.000000            0.588931            0.000000            
-153.000000         0.600109            0.351701            0.239120            0.000000            0.600109            0.000000            
-152.000000         0.610575            0.375997            0.245544            0.000000            0.610575            0.000000            
-151.000000         0.620261            0.400861            0.251899            0.000000            0.620261            0.000000            
-150.000000         0.629119            0.426264            0.258174            0.000000            0.629119            0.000000            
-149.000000         0.637110            0.452174            0.264362            0.000000            0.637110            0.000000            
-148.000000         0.644207            0.478559            0.270460            0.000000            0.644207            0.000000            
-147.000000         0.650393            0.505388            0.276466            0.000000            0.650393            0.000000            
-146.000000         0.655653            0.532626            0.282380            0.000000            0.655653            0.000000            
-145.000000         0.659980            0.560240            0.288202            0.000000            0.659980            0.000000            
-144.000000         0.663370            0.588198            0.293934            0.000000            0.663370            0.000000            
-143.000000         0.665823            0.616464            0.299577            0.000000            0.665823            0.000000            
-142.000000         0.667342            0.645004            0.305135            0.000000            0.667342            0.000000            
-141.000000         0.667933            0.673783            0.310610            0.000000            0.667933            0.000000            
-140.000000         0.667604            0.702767            0.316003            0.000000            0.667604            0.000000            
-139.000000         0.666364            0.731919            0.321317            0.000000            0.666364            0.000000            
-138.000000         0.664225            0.761205            0.326555            0.000000            0.664225            0.000000            
-137.000000         0.661201            0.790589            0.331719            0.000000            0.661201            0.000000            
-136.000000         0.657306            0.820034            0.336809            0.000000            0.657306            0.000000            
-135.000000         0.652556            0.849506            0.341827            0.000000            0.652556            0.000000            
-134.000000         0.646969            0.878969            0.346775            0.000000            0.646969            0.000000            
-133.000000         0.640562            0.908386            0.351652            0.000000            0.640562            0.000000            
-132.000000         0.633354            0.937723            0.356459            0.000000            0.633354            0.000000            
-131.000000         0.625366            0.966943            0.361196            0.000000            0.625366            0.000000            
-130.000000         0.616618            0.996011            0.365861            0.000000            0.616618            0.000000            
-129.000000         0.607132            1.024893            0.370453            0.000000            0.607132            0.000000            
-128.000000         0.596929            1.053553            0.374972            0.000000            0.596929            0.000000            
-127.000000         0.586031            1.081957            0.379414            0.000000            0.586031            0.000000            
-126.000000         0.574463            1.110070            0.383777            0.000000            0.574463            0.000000            
-125.000000         0.562246            1.137858            0.388059            0.000000            0.562246            0.000000            
-124.000000         0.549404            1.165289            0.392255            0.000000            0.549404            0.000000            
-123.000000         0.535959            1.192328            0.396363            0.000000            0.535959            0.000000            
-122.000000         0.521934            1.218944            0.400378            0.000000            0.521934            0.000000            
-121.000000         0.507354            1.245104            0.404295            0.000000            0.507354            0.000000            
-120.000000         0.492245            1.270777            0.408110            0.000000            0.492245            0.000000            
-119.000000         0.476630            1.295932            0.411819            0.000000            0.476630            0.000000            
-118.000000         0.460534            1.320538            0.415416            0.000000            0.460534            0.000000            
-117.000000         0.443983            1.344567            0.418896            0.000000            0.443983            0.000000            
-116.000000         0.427000            1.367989            0.422253            0.000000            0.427000            0.000000            
-115.000000         0.409611            1.390776            0.425482            0.000000            0.409611            0.000000            
-114.000000         0.391838            1.412901            0.428577            0.000000            0.391838            0.000000            
-113.000000         0.373707            1.434338            0.431532            0.000000            0.373707            0.000000            
-112.000000         0.355240            1.455060            0.434340            0.000000            0.355240            0.000000            
-111.000000         0.336463            1.475042            0.436997            0.000000            0.336463            0.000000            
-110.000000         0.317397            1.494262            0.439496            0.000000            0.317397            0.000000            
-109.000000         0.298067            1.512695            0.441832            0.000000            0.298067            0.000000            
-108.000000         0.278494            1.530319            0.443997            0.000000            0.278494            0.000000            
-107.000000         0.258702            1.547115            0.445988            0.000000            0.258702            0.000000            
-106.000000         0.238713            1.563060            0.447798            0.000000            0.238713            0.000000            
-105.000000         0.218549            1.578138            0.449422            0.000000            0.218549            0.000000            
-104.000000         0.198231            1.592328            0.450855            0.000000            0.198231            0.000000            
-103.000000         0.177781            1.605615            0.452093            0.000000            0.177781            0.000000            
-102.000000         0.157219            1.617982            0.453130            0.000000            0.157219            0.000000            
-101.000000         0.136567            1.629415            0.453963            0.000000            0.136567            0.000000            
-100.000000         0.115845            1.639899            0.454587            0.000000            0.115845            0.000000            
-99.000000          0.095072            1.649423            0.455000            0.000000            0.095072            0.000000            
-98.000000          0.074269            1.657976            0.455198            0.000000            0.074269            0.000000            
-97.000000          0.053455            1.665546            0.455178            0.000000            0.053455            0.000000            
-96.000000          0.032649            1.672125            0.454938            0.000000            0.032649            0.000000            
-95.000000          0.011870            1.677704            0.454476            0.000000            0.011870            0.000000            
-94.000000          -0.008865           1.682278            0.453791            0.000000            -0.008865           0.000000            
-93.000000          -0.029535           1.685841            0.452881            0.000000            -0.029535           0.000000            
-92.000000          -0.050125           1.688388            0.451747            0.000000            -0.050125           0.000000            
-91.000000          -0.070615           1.689917            0.450388            0.000000            -0.070615           0.000000            
-90.000000          -0.090989           1.690425            0.448805            0.000000            -0.090989           0.000000            
-89.000000          -0.111229           1.689979            0.447016            -10.338737          -0.111229           0.000000            
-88.000000          -0.131318           1.688512            0.445004            -10.219601          -0.131318           0.000000            
-87.000000          -0.151241           1.686027            0.442772            -10.100465          -0.151241           0.000000            
-86.000000          -0.170980           1.682526            0.440322            -9.981328           -0.170980           0.000000            
-85.000000          -0.190518           1.678014            0.437656            -9.862192           -0.190518           0.000000            
-84.000000          -0.209841           1.672497            0.434777            -9.743056           -0.209841           0.000000            
-83.000000          -0.228934           1.665980            0.431690            -9.623919           -0.228934           0.000000            
-82.000000          -0.247781           1.658471            0.428398            -9.504784           -0.247781           0.000000            
-81.000000          -0.266366           1.649981            0.424905            -9.385648           -0.266366           0.000000            
-80.000000          -0.284674           1.640518            0.421217            -9.266511           -0.284674           0.000000            
-79.000000          -0.302691           1.630095            0.417339            -9.147375           -0.302691           0.000000            
-78.000000          -0.320402           1.618723            0.413275            -9.028239           -0.320402           0.000000            
-77.000000          -0.337791           1.606417            0.409033            -8.909102           -0.337791           0.000000            
-76.000000          -0.354844           1.593191            0.404617            -8.789967           -0.354844           0.000000            
-75.000000          -0.371547           1.579061            0.400036            -8.670831           -0.371547           0.000000            
-74.000000          -0.387885           1.564045            0.395294            -8.551694           -0.387885           0.000000            
-73.000000          -0.403844           1.548159            0.390399            -8.432558           -0.403844           0.000000            
-72.000000          -0.419410           1.531424            0.385358            -8.313422           -0.419410           0.000000            
-71.000000          -0.434569           1.513859            0.380179            -8.194285           -0.434569           0.000000            
-70.000000          -0.449307           1.495485            0.374869            -8.075150           -0.449307           0.000000            
-69.000000          -0.463611           1.476325            0.369435            -7.956013           -0.463611           0.000000            
-68.000000          -0.477467           1.456401            0.363885            -7.836877           -0.477467           0.000000            
-67.000000          -0.490861           1.435737            0.358227            -7.717741           -0.490861           0.000000            
-66.000000          -0.503782           1.414358            0.352468            -7.598605           -0.503782           0.000000            
-65.000000          -0.516214           1.392291            0.346617            -7.479468           -0.516214           0.000000            
-64.000000          -0.528147           1.369560            0.340681            -7.360332           -0.528147           0.000000            
-63.000000          -0.539566           1.346194            0.334668            -7.241196           -0.539566           0.000000            
-62.000000          -0.550460           1.322221            0.328585            -7.122060           -0.550460           0.000000            
-61.000000          -0.560816           1.297669            0.322440            -7.002924           -0.560816           0.000000            
-60.000000          -0.570622           1.272568            0.316241            -6.883788           -0.570622           0.000000            
-59.000000          -0.579866           1.246949            0.309996            -6.764651           -0.579866           0.000000            
-58.000000          -0.588537           1.220841            0.303710            -6.645515           -0.588537           0.000000            
-57.000000          -0.596623           1.194276            0.297392            -6.526379           -0.596623           0.000000            
-56.000000          -0.604114           1.167287            0.291048            -6.407243           -0.604114           0.000000            
-55.000000          -0.610999           1.139905            0.284684            -6.288107           -0.610999           0.000000            
-54.000000          -0.617266           1.112164            0.278309            -6.168971           -0.617266           0.000000            
-53.000000          -0.622908           1.084098            0.271927            -6.049834           -0.622908           0.000000            
-52.000000          -0.627913           1.055738            0.265545            -5.930698           -0.627913           0.000000            
-51.000000          -0.632272           1.027121            0.259168            -5.811562           -0.632272           0.000000            
-50.000000          -0.635978           0.998280            0.252802            -5.692426           -0.635978           0.000000            
-49.000000          -0.639021           0.969249            0.246452            -5.573290           -0.639021           0.000000            
-48.000000          -0.641394           0.940065            0.240124            -5.454154           -0.641394           0.000000            
-47.000000          -0.643090           0.910761            0.233821            -5.335017           -0.643090           0.000000            
-46.000000          -0.644103           0.881373            0.227549            -5.215881           -0.644103           0.000000            
-45.000000          -0.644427           0.851936            0.221311            -5.096745           -0.644427           0.000000            
-44.000000          -0.644056           0.822486            0.215112            -4.977609           -0.644056           0.000000            
-43.000000          -0.642987           0.793057            0.208954            -4.858473           -0.642987           0.000000            
-42.000000          -0.641217           0.763685            0.202842            -4.739336           -0.641217           0.000000            
-41.000000          -0.638743           0.734404            0.196779            -4.620200           -0.638743           0.000000            
-40.000000          -0.635565           0.705250            0.190767            -4.501064           -0.635565           0.000000            
-39.000000          -0.631682           0.676256            0.184810            -4.381928           -0.631682           0.000000            
-38.000000          -0.627097           0.647457            0.178910            -4.262792           -0.627097           0.000000            
-37.000000          -0.621814           0.618886            0.173069            -4.143656           -0.621814           0.000000            
-36.000000          -0.615838           0.590576            0.167291            -4.024519           -0.615838           0.000000            
-35.000000          -0.609178           0.562559            0.161577            -3.905383           -0.609178           0.000000            
-34.000000          -0.601844           0.534867            0.155930            -3.786247           -0.601844           0.000000            
-33.000000          -0.593853           0.507530            0.150354            -3.667111           -0.593853           0.000000            
-32.000000          -0.585223           0.480576            0.144850            -3.547975           -0.585223           0.000000            
-31.000000          -0.575981           0.454033            0.136687            -3.428838           -0.575981           0.000000            
-30.000000          -0.566160           0.427927            0.128524            -3.309702           -0.566160           0.000000            
-29.000000          -0.555802           0.402280            0.120360            -3.190566           -0.555802           0.000000            
-28.000000          -0.544964           0.377112            0.112197            -3.071430           -0.544964           0.000000            
-27.000000          -0.533720           0.352438            0.104034            -2.952294           -0.533720           0.000000            
-26.000000          -0.522168           0.328269            0.095870            -2.833158           -0.522168           0.000000            
-25.000000          -0.510440           0.304606            0.087707            -2.714021           -0.510440           0.000000            
-24.000000          -0.498720           0.281442            0.079544            -2.594885           -0.498720           0.000000            
-23.000000          -0.487260           0.258755            0.071380            -2.475749           -0.487260           0.000000            
-22.000000          -0.476418           0.236502            0.063217            -2.356613           -0.476418           0.000000            
-21.000000          -0.466713           0.214610            0.055053            -2.237477           -0.466713           0.000000            
-20.000000          -0.458907           0.192964            0.046890            -2.118341           -0.458907           0.000000            
-19.000000          -0.454146           0.171390            0.038727            -1.999205           -0.450759           0.002187            
-18.000000          -0.454174           0.149626            0.030563            -1.880068           -0.453761           0.000289            
-17.000000          -0.627400           0.167210            0.022400            -1.760932           -0.583166           0.037558            
-15.000000          -0.883900           0.080340            -0.034000           -1.522660           -0.642371           0.274374            
-14.500000          -0.983400           0.057580            -0.049600           -1.463092           -0.651167           0.409192            
-14.000000          -1.028400           0.042690            -0.062500           -1.403524           -0.642733           0.506929            
-13.500000          -1.046900           0.035490            -0.066700           -1.343956           -0.627283           0.585508            
-13.000000          -1.052900           0.031770            -0.063900           -1.284387           -0.608648           0.657431            
-12.500000          -1.040500           0.028810            -0.060700           -1.224819           -0.586394           0.711291            
-12.000000          -1.018900           0.026230            -0.057700           -1.165251           -0.562406           0.757233            
-11.500000          -0.990100           0.024430            -0.054700           -1.105683           -0.537152           0.796699            
-11.000000          -0.960400           0.022620            -0.051400           -1.046115           -0.511636           0.839629            
-10.500000          -0.929000           0.021030            -0.048100           -0.986547           -0.485749           0.885089            
-10.000000          -0.895300           0.019690            -0.044800           -0.926979           -0.459425           0.932245            
-9.500000           -0.861100           0.018370            -0.041500           -0.867411           -0.432912           0.985476            
-9.000000           -0.807800           0.017140            -0.042000           -0.807843           -0.403916           0.999894            
-8.500000           -0.745000           0.015960            -0.044400           -0.748275           -0.373727           0.991257            
-8.000000           -0.680600           0.014890            -0.046900           -0.688707           -0.343331           0.976528            
-7.500000           -0.615900           0.013950            -0.049300           -0.629138           -0.312888           0.958139            
-7.000000           -0.550800           0.013100            -0.051700           -0.569570           -0.282379           0.934642            
-6.500000           -0.485600           0.012290            -0.054000           -0.510002           -0.251837           0.905478            
-6.000000           -0.422000           0.011590            -0.055800           -0.450434           -0.221485           0.875805            
-5.500000           -0.361400           0.010940            -0.056800           -0.390866           -0.191528           0.852181            
-5.000000           -0.304400           0.010390            -0.057100           -0.331298           -0.162067           0.841057            
-4.500000           -0.248500           0.009880            -0.056900           -0.271730           -0.132761           0.832841            
-4.000000           -0.193600           0.009420            -0.056600           -0.212162           -0.103596           0.829026            
-3.500000           -0.139100           0.008990            -0.056200           -0.152594           -0.074489           0.827234            
-3.000000           -0.085000           0.008600            -0.055700           -0.093026           -0.045440           0.831344            
-2.500000           -0.030800           0.008250            -0.055200           -0.033458           -0.016375           0.844423            
-2.000000           0.023100            0.007940            -0.054700           0.026110            0.012643            0.776464            
-1.500000           0.076900            0.007630            -0.054200           0.085679            0.041650            0.800618            
-1.000000           0.129600            0.007270            -0.053500           0.145247            0.070494            0.790688            
-0.500000           0.181600            0.006920            -0.052600           0.204815            0.099233            0.780125            
0.000000            0.232700            0.006690            -0.051400           0.264383            0.127835            0.767972            
0.500000            0.282500            0.006540            -0.049500           0.323951            0.156237            0.752847            
1.000000            0.333600            0.006580            -0.047800           0.383519            0.184836            0.748751            
1.500000            0.398200            0.006800            -0.049300           0.443087            0.215467            0.802798            
2.000000            0.469600            0.007070            -0.052600           0.502655            0.246980            0.870714            
2.500000            0.543400            0.007350            -0.056600           0.562223            0.278698            0.933610            
3.000000            0.592100            0.007650            -0.055200           0.621791            0.307046            0.905666            
3.500000            0.640800            0.007990            -0.053700           0.681359            0.335372            0.882772            
4.000000            0.689600            0.008370            -0.052300           0.740928            0.363694            0.863937            
4.500000            0.738200            0.008870            -0.050900           0.800496            0.391975            0.847509            
5.500000            0.832900            0.010330            -0.048100           0.919632            0.448142            0.816047            
6.000000            0.879000            0.011270            -0.046600           0.979200            0.476024            0.800865            
6.500000            0.925000            0.012220            -0.045200           1.038768            0.503877            0.787306            
7.000000            0.970900            0.013160            -0.043700           1.098336            0.531703            0.775099            
7.500000            1.016900            0.014050            -0.042200           1.157904            0.559534            0.764353            
8.000000            1.062300            0.014950            -0.040700           1.217472            0.587264            0.753776            
8.500000            1.106800            0.015890            -0.039100           1.277040            0.614845            0.742915            
9.000000            1.149700            0.016870            -0.037200           1.336608            0.642165            0.730852            
9.500000            1.190800            0.017920            -0.035200           1.396176            0.669185            0.717498            
10.000000           1.229300            0.019060            -0.032800           1.455745            0.695769            0.702037            
10.500000           1.264500            0.020290            -0.030000           1.515313            0.721785            0.683927            
11.000000           1.292700            0.021610            -0.026100           1.574881            0.746588            0.659323            
11.500000           1.315500            0.023190            -0.021800           1.634449            0.770375            0.630878            
12.000000           1.336300            0.024930            -0.017700           1.694017            0.793682            0.602685            
12.500000           1.351700            0.027080            -0.013700           1.753585            0.815856            0.571427            
13.000000           1.364100            0.029580            -0.010200           1.813153            0.837266            0.539851            
13.500000           1.369700            0.032780            -0.007200           1.872721            0.857100            0.504716            
14.000000           1.373200            0.036480            -0.005000           1.932289            0.876182            0.470613            
14.500000           1.372000            0.040930            -0.003600           1.991857            0.893894            0.435448            
15.000000           1.363200            0.046450            -0.003200           2.051425            0.909434            0.397346            
15.500000           1.352500            0.052570            -0.003700           2.110994            0.923917            0.361041            
16.000000           1.337800            0.059460            -0.005100           2.170562            0.936723            0.325064            
16.500000           1.321400            0.066860            -0.007500           2.230130            0.948298            0.291069            
17.000000           1.304900            0.074530            -0.010700           2.289698            0.959013            0.259932            
17.500000           1.289000            0.082310            -0.014800           2.349266            0.969061            0.231805            
18.000000           1.273800            0.090370            -0.019900           2.408834            0.978493            0.206459            
18.500000           1.259700            0.098490            -0.025700           2.468402            0.987468            0.183825            
19.000000           1.246900            0.106580            -0.032300           2.527970            0.996103            0.163720            
19.500000           1.235500            0.114570            -0.039300           2.587538            1.004496            0.145924            
20.000000           1.226200            0.122280            -0.046700           2.647106            1.226200            0.000000            
21.000000           0.675976            0.222524            -0.057940           2.766243            0.675976            0.000000            
22.000000           0.698817            0.243688            -0.069179           2.885379            0.698817            0.000000            
23.000000           0.721706            0.265521            -0.080419           3.004515            0.721706            0.000000            
24.000000           0.744483            0.288019            -0.091658           3.123651            0.744483            0.000000            
25.000000           0.767023            0.311171            -0.102898           3.242787            0.767023            0.000000            
26.000000           0.789222            0.334962            -0.114138           3.361923            0.789222            0.000000            
27.000000           0.810994            0.359373            -0.125377           3.481060            0.810994            0.000000            
28.000000           0.832265            0.384384            -0.136617           3.600196            0.832265            0.000000            
29.000000           0.852971            0.409969            -0.147857           3.719332            0.852971            0.000000            
30.000000           0.873054            0.436104            -0.159096           3.838468            0.873054            0.000000            
31.000000           0.892464            0.462759            -0.170336           3.957604            0.892464            0.000000            
32.000000           0.911153            0.489907            -0.181575           4.076740            0.911153            0.000000            
33.000000           0.929080            0.517516            -0.192815           4.195877            0.929080            0.000000            
34.000000           0.946202            0.545556            -0.204055           4.315013            0.946202            0.000000            
35.000000           0.962484            0.573994            -0.215294           4.434149            0.962484            0.000000            
36.000000           0.977890            0.602797            -0.222136           4.553285            0.977890            0.000000            
37.000000           0.992386            0.631931            -0.228976           4.672421            0.992386            0.000000            
38.000000           1.005942            0.661363            -0.235807           4.791557            1.005942            0.000000            
39.000000           1.018528            0.691056            -0.242622           4.910694            1.018528            0.000000            
40.000000           1.030116            0.720975            -0.249414           5.029830            1.030116            0.000000            
41.000000           1.040680            0.751086            -0.256175           5.148966            1.040680            0.000000            
42.000000           1.050195            0.781350            -0.262899           5.268102            1.050195            0.000000            
43.000000           1.058638            0.811732            -0.269579           5.387239            1.058638            0.000000            
44.000000           1.065987            0.842195            -0.276208           5.506374            1.065987            0.000000            
45.000000           1.072221            0.872703            -0.282781           5.625511            1.072221            0.000000            
46.000000           1.077322            0.903217            -0.289289           5.744647            1.077322            0.000000            
47.000000           1.081273            0.933701            -0.295727           5.863783            1.081273            0.000000            
48.000000           1.084058            0.964118            -0.302090           5.982919            1.084058            0.000000            
49.000000           1.085662            0.994430            -0.308370           6.102056            1.085662            0.000000            
50.000000           1.086072            1.024601            -0.314563           6.221191            1.086072            0.000000            
51.000000           1.085279            1.054593            -0.320662           6.340328            1.085279            0.000000            
52.000000           1.083271            1.084370            -0.326664           6.459464            1.083271            0.000000            
53.000000           1.080042            1.113895            -0.332562           6.578600            1.080042            0.000000            
54.000000           1.075584            1.143132            -0.338352           6.697736            1.075584            0.000000            
55.000000           1.069894            1.172045            -0.344030           6.816873            1.069894            0.000000            
56.000000           1.062968            1.200599            -0.349592           6.936008            1.062968            0.000000            
57.000000           1.054806            1.228758            -0.355033           7.055145            1.054806            0.000000            
58.000000           1.045407            1.256488            -0.360351           7.174281            1.045407            0.000000            
59.000000           1.034774            1.283754            -0.365542           7.293417            1.034774            0.000000            
60.000000           1.022911            1.310523            -0.370604           7.412553            1.022911            0.000000            
61.000000           1.009823            1.336762            -0.375533           7.531690            1.009823            0.000000            
62.000000           0.995519            1.362439            -0.380328           7.650826            0.995519            0.000000            
63.000000           0.980007            1.387521            -0.384988           7.769962            0.980007            0.000000            
64.000000           0.963298            1.411978            -0.389510           7.889098            0.963298            0.000000            
65.000000           0.945406            1.435779            -0.393894           8.008234            0.945406            0.000000            
66.000000           0.926345            1.458895            -0.398138           8.127371            0.926345            0.000000            
67.000000           0.906132            1.481297            -0.402244           8.246507            0.906132            0.000000            
68.000000           0.884784            1.502959            -0.406210           8.365643            0.884784            0.000000            
69.000000           0.862321            1.523851            -0.410037           8.484779            0.862321            0.000000            
70.000000           0.838766            1.543950            -0.413726           8.603915            0.838766            0.000000            
71.000000           0.814142            1.563230            -0.417277           8.723051            0.814142            0.000000            
72.000000           0.788475            1.581667            -0.420692           8.842188            0.788475            0.000000            
73.000000           0.761790            1.599237            -0.423973           8.961324            0.761790            0.000000            
74.000000           0.734117            1.615921            -0.427122           9.080460            0.734117            0.000000            
75.000000           0.705486            1.631695            -0.430140           9.199596            0.705486            0.000000            
76.000000           0.675929            1.646542            -0.433030           9.318732            0.675929            0.000000            
77.000000           0.645479            1.660442            -0.435795           9.437868            0.645479            0.000000            
78.000000           0.614172            1.673379            -0.438437           9.557005            0.614172            0.000000            
79.000000           0.582044            1.685335            -0.440960           9.676141            0.582044            0.000000            
80.000000           0.549134            1.696297            -0.443366           9.795277            0.549134            0.000000            
81.000000           0.515480            1.706250            -0.445659           9.914413            0.515480            0.000000            
82.000000           0.481124            1.715182            -0.447843           10.033549           0.481124            0.000000            
83.000000           0.446108            1.723083            -0.449921           10.152685           0.446108            0.000000            
84.000000           0.410476            1.729941            -0.451896           10.271822           0.410476            0.000000            
85.000000           0.374272            1.735749            -0.453772           10.390958           0.374272            0.000000            
86.000000           0.337541            1.740499            -0.455553           10.510094           0.337541            0.000000            
87.000000           0.300330            1.744186            -0.457242           10.629230           0.300330            0.000000            
88.000000           0.262686            1.746804            -0.458843           10.748366           0.262686            0.000000            
89.000000           0.224660            1.748350            -0.460360           10.867502           0.224660            0.000000            
90.000000           0.186301            1.748823            -0.461795           0.000000            0.186301            0.000000            
91.000000           0.147661            1.748288            -0.463170           0.000000            0.147661            0.000000            
92.000000           0.108789            1.746679            -0.464470           0.000000            0.108789            0.000000            
93.000000           0.069740            1.743999            -0.465698           0.000000            0.069740            0.000000            
94.000000           0.030565            1.740250            -0.466856           0.000000            0.030565            0.000000            
95.000000           -0.008681           1.735438            -0.467948           0.000000            -0.008681           0.000000            
96.000000           -0.047945           1.729567            -0.468974           0.000000            -0.047945           0.000000            
97.000000           -0.087173           1.722647            -0.469938           0.000000            -0.087173           0.000000            
98.000000           -0.126311           1.714684            -0.470840           0.000000            -0.126311           0.000000            
99.000000           -0.165304           1.705690            -0.471682           0.000000            -0.165304           0.000000            
100.000000          -0.204097           1.695675            -0.472465           0.000000            -0.204097           0.000000            
101.000000          -0.242635           1.684652            -0.473188           0.000000            -0.242635           0.000000            
102.000000          -0.280865           1.672633            -0.473852           0.000000            -0.280865           0.000000            
103.000000          -0.318732           1.659635            -0.474457           0.000000            -0.318732           0.000000            
104.000000          -0.356182           1.645674            -0.475002           0.000000            -0.356182           0.000000            
105.000000          -0.393161           1.630766            -0.475486           0.000000            -0.393161           0.000000            
106.000000          -0.429616           1.614930            -0.475907           0.000000            -0.429616           0.000000            
107.000000          -0.465496           1.598186            -0.476264           0.000000            -0.465496           0.000000            
108.000000          -0.500747           1.580554            -0.476553           0.000000            -0.500747           0.000000            
109.000000          -0.535319           1.562057            -0.476772           0.000000            -0.535319           0.000000            
110.000000          -0.569161           1.542717            -0.476917           0.000000            -0.569161           0.000000            
111.000000          -0.602226           1.522559            -0.476986           0.000000            -0.602226           0.000000            
112.000000          -0.634463           1.501606            -0.476973           0.000000            -0.634463           0.000000            
113.000000          -0.665827           1.479885            -0.476874           0.000000            -0.665827           0.000000            
114.000000          -0.696272           1.457424            -0.476684           0.000000            -0.696272           0.000000            
115.000000          -0.725752           1.434249            -0.476399           0.000000            -0.725752           0.000000            
116.000000          -0.754226           1.410389            -0.476011           0.000000            -0.754226           0.000000            
117.000000          -0.781650           1.385875            -0.475516           0.000000            -0.781650           0.000000            
118.000000          -0.807987           1.360735            -0.474906           0.000000            -0.807987           0.000000            
119.000000          -0.833196           1.335002            -0.474176           0.000000            -0.833196           0.000000            
120.000000          -0.857242           1.308707            -0.473318           0.000000            -0.857242           0.000000            
121.000000          -0.880089           1.281882            -0.472326           0.000000            -0.880089           0.000000            
122.000000          -0.901704           1.254560            -0.471191           0.000000            -0.901704           0.000000            
123.000000          -0.922057           1.226776            -0.469907           0.000000            -0.922057           0.000000            
124.000000          -0.941117           1.198563            -0.468465           0.000000            -0.941117           0.000000            
125.000000          -0.958859           1.169956            -0.466858           0.000000            -0.958859           0.000000            
126.000000          -0.975261           1.140991            -0.465079           0.000000            -0.975261           0.000000            
127.000000          -0.990301           1.111703            -0.463121           0.000000            -0.990301           0.000000            
128.000000          -1.003961           1.082128            -0.460975           0.000000            -1.003961           0.000000            
129.000000          -1.016223           1.052302            -0.458634           0.000000            -1.016223           0.000000            
130.000000          -1.027072           1.022262            -0.456092           0.000000            -1.027072           0.000000            
131.000000          -1.036496           0.992046            -0.453341           0.000000            -1.036496           0.000000            
132.000000          -1.044485           0.961689            -0.450373           0.000000            -1.044485           0.000000            
133.000000          -1.051032           0.931230            -0.447183           0.000000            -1.051032           0.000000            
134.000000          -1.056132           0.900705            -0.443764           0.000000            -1.056132           0.000000            
135.000000          -1.059783           0.870152            -0.440110           0.000000            -1.059783           0.000000            
136.000000          -1.061986           0.839609            -0.436216           0.000000            -1.061986           0.000000            
137.000000          -1.062745           0.809113            -0.432076           0.000000            -1.062745           0.000000            
138.000000          -1.062066           0.778700            -0.427687           0.000000            -1.062066           0.000000            
139.000000          -1.059958           0.748409            -0.423045           0.000000            -1.059958           0.000000            
140.000000          -1.056434           0.718276            -0.418146           0.000000            -1.056434           0.000000            
141.000000          -1.051509           0.688338            -0.412988           0.000000            -1.051509           0.000000            
142.000000          -1.045202           0.658631            -0.407570           0.000000            -1.045202           0.000000            
143.000000          -1.037535           0.629192            -0.401891           0.000000            -1.037535           0.000000            
144.000000          -1.028535           0.600056            -0.395952           0.000000            -1.028535           0.000000            
145.000000          -1.018231           0.571259            -0.389754           0.000000            -1.018231           0.000000            
146.000000          -1.006658           0.542836            -0.383301           0.000000            -1.006658           0.000000            
147.000000          -0.993854           0.514822            -0.376598           0.000000            -0.993854           0.000000            
148.000000          -0.979865           0.487249            -0.369651           0.000000            -0.979865           0.000000            
149.000000          -0.964742           0.460152            -0.362468           0.000000            -0.964742           0.000000            
150.000000          -0.948543           0.433563            -0.355062           0.000000            -0.948543           0.000000            
151.000000          -0.931338           0.407515            -0.347447           0.000000            -0.931338           0.000000            
152.000000          -0.913207           0.382039            -0.339643           0.000000            -0.913207           0.000000            
153.000000          -0.894246           0.357165            -0.331674           0.000000            -0.894246           0.000000            
154.000000          -0.874569           0.332924            -0.323571           0.000000            -0.874569           0.000000            
155.000000          -0.854532           0.309344            -0.315443           0.000000            -0.854532           0.000000            
156.000000          -0.838158           0.286454            -0.308574           0.000000            -0.838158           0.000000            
157.000000          -0.826275           0.264281            -0.303277           0.000000            -0.826275           0.000000            
158.000000          -0.818136           0.242853            -0.299354           0.000000            -0.818136           0.000000            
159.000000          -0.813136           0.222193            -0.296644           0.000000            -0.813136           0.000000            
160.000000          -0.810836           0.202328            -0.295029           0.000000            -0.810836           0.000000            
161.000000          -0.810998           0.183280            -0.294451           0.000000            -0.810998           0.000000            
162.000000          -0.813640           0.165072            -0.294932           0.000000            -0.813640           0.000000            
163.000000          -0.819095           0.147726            -0.296601           0.000000            -0.819095           0.000000            
164.000000          -0.828060           0.131261            -0.299716           0.000000            -0.828060           0.000000            
165.000000          -0.841563           0.115699            -0.304654           0.000000            -0.841563           0.000000            
166.000000          -0.860629           0.101056            -0.311799           0.000000            -0.860629           0.000000            
167.000000          -0.885212           0.087349            -0.321166           0.000000            -0.885212           0.000000            
168.000000          -0.911865           0.074596            -0.331545           0.000000            -0.911865           0.000000            
169.000000          -0.930815           0.062809            -0.339415           0.000000            -0.930815           0.000000            
170.000000          -0.926874           0.052004            -0.339192           0.000000            -0.926874           0.000000            
171.000000          -0.888938           0.042192            -0.326642           0.000000            -0.888938           0.000000            
172.000000          -0.819847           0.033384            -0.302564           0.000000            -0.819847           0.000000            
173.000000          -0.732454           0.025590            -0.271495           0.000000            -0.732454           0.000000            
174.000000          -0.638361           0.018820            -0.237635           0.000000            -0.638361           0.000000            
175.000000          -0.543084           0.013079            -0.203011           0.000000            -0.543084           0.000000            
176.000000          -0.447610           0.008375            -0.167999           0.000000            -0.447610           0.000000            
177.000000          -0.351318           0.004711            -0.132376           0.000000            -0.351318           0.000000            
178.000000          -0.254286           0.002093            -0.096177           0.000000            -0.254286           0.000000            
179.000000          -0.158457           0.000521            -0.060152           0.000000            -0.158457           0.000000            
180.000000          -0.066540           -0.000003           -0.025163           0.000000            -0.066540           0.000000            
